version 2
run General-0-20190531-22:18:17-30826
attr configname General
attr datetime 20190531-22:18:17
attr experiment General
attr inifile omnetpp.ini
attr iterationvars ""
attr iterationvarsf ""
attr measurement ""
attr network mymodel.My2Network
attr processid 30826
attr repetition 0
attr replication #0
attr resultdir results
attr runnumber 0
attr seedset 0
param **node0*.ipv4.configurator.networkConfiguratorModule "\"configurator[0]\""
param **node1*.ipv4.configurator.networkConfiguratorModule "\"configurator[1]\""
param **host*.numApps 1
param **host*.app[0].typename "\"UdpBasicApp\""
param **host*.app[0].localPort 32344
param **host*.app[0].messageLength 1000B
param **host*.app[0].stopTime 100s
param **host*.app[0].destAddresses "moduleListByPath(\"**host*\")"
param **host*.app[0].destPort 32344
param **host*.app[0].sendInterval 0.4s

vector 0 My2Network.host2.app[0] packetSent:vector(packetBytes) ETV
attr interpolationmode none
attr source packetSent
attr title "packets sent, vector(packetBytes)"
vector 1 My2Network.host3.app[0] packetSent:vector(packetBytes) ETV
attr interpolationmode none
attr source packetSent
attr title "packets sent, vector(packetBytes)"
vector 2 My2Network.host4.app[0] packetSent:vector(packetBytes) ETV
attr interpolationmode none
attr source packetSent
attr title "packets sent, vector(packetBytes)"
vector 3 My2Network.host5.app[0] packetSent:vector(packetBytes) ETV
attr interpolationmode none
attr source packetSent
attr title "packets sent, vector(packetBytes)"
vector 4 My2Network.host6.app[0] packetSent:vector(packetBytes) ETV
attr interpolationmode none
attr source packetSent
attr title "packets sent, vector(packetBytes)"
vector 5 My2Network.host7.app[0] packetSent:vector(packetBytes) ETV
attr interpolationmode none
attr source packetSent
attr title "packets sent, vector(packetBytes)"
vector 6 My2Network.host8.app[0] packetSent:vector(packetBytes) ETV
attr interpolationmode none
attr source packetSent
attr title "packets sent, vector(packetBytes)"
vector 7 My2Network.host9.app[0] packetSent:vector(packetBytes) ETV
attr interpolationmode none
attr source packetSent
attr title "packets sent, vector(packetBytes)"
vector 8 My2Network.host2.udp packetSent:vector(packetBytes) ETV
attr interpolationmode none
attr source packetSent
attr title "packets sent, vector(packetBytes)"
vector 9 My2Network.host3.udp packetSent:vector(packetBytes) ETV
attr interpolationmode none
attr source packetSent
attr title "packets sent, vector(packetBytes)"
vector 10 My2Network.host4.udp packetSent:vector(packetBytes) ETV
attr interpolationmode none
attr source packetSent
attr title "packets sent, vector(packetBytes)"
vector 11 My2Network.host5.udp packetSent:vector(packetBytes) ETV
attr interpolationmode none
attr source packetSent
attr title "packets sent, vector(packetBytes)"
vector 12 My2Network.host6.udp packetSent:vector(packetBytes) ETV
attr interpolationmode none
attr source packetSent
attr title "packets sent, vector(packetBytes)"
vector 13 My2Network.host7.udp packetSent:vector(packetBytes) ETV
attr interpolationmode none
attr source packetSent
attr title "packets sent, vector(packetBytes)"
vector 14 My2Network.host8.udp packetSent:vector(packetBytes) ETV
attr interpolationmode none
attr source packetSent
attr title "packets sent, vector(packetBytes)"
vector 15 My2Network.host9.udp packetSent:vector(packetBytes) ETV
attr interpolationmode none
attr source packetSent
attr title "packets sent, vector(packetBytes)"
vector 16 My2Network.host4.ipv4.arp arpRequestSent:vector(packetBytes) ETV
attr source arpRequestSent
attr title "ARP request sent, vector(packetBytes)"
vector 17 My2Network.host5.ipv4.arp arpRequestSent:vector(packetBytes) ETV
attr source arpRequestSent
attr title "ARP request sent, vector(packetBytes)"
vector 18 My2Network.host6.ipv4.arp arpRequestSent:vector(packetBytes) ETV
attr source arpRequestSent
attr title "ARP request sent, vector(packetBytes)"
vector 19 My2Network.host7.ipv4.arp arpRequestSent:vector(packetBytes) ETV
attr source arpRequestSent
attr title "ARP request sent, vector(packetBytes)"
vector 20 My2Network.host8.ipv4.arp arpRequestSent:vector(packetBytes) ETV
attr source arpRequestSent
attr title "ARP request sent, vector(packetBytes)"
vector 21 My2Network.host9.ipv4.arp arpRequestSent:vector(packetBytes) ETV
attr source arpRequestSent
attr title "ARP request sent, vector(packetBytes)"
vector 22 My2Network.host2.lo[0].lo rcvdPkFromHl:vector(packetBytes) ETV
attr interpolationmode none
attr source packetReceivedFromUpper
attr title "packets received from higher layer, vector(packetBytes)"
vector 23 My2Network.host2.lo[0].lo passedUpPk:vector(packetBytes) ETV
attr interpolationmode none
attr source packetSentToUpper
attr title "packets passed to higher layer, vector(packetBytes)"
vector 24 My2Network.host3.lo[0].lo rcvdPkFromHl:vector(packetBytes) ETV
attr interpolationmode none
attr source packetReceivedFromUpper
attr title "packets received from higher layer, vector(packetBytes)"
vector 25 My2Network.host3.lo[0].lo passedUpPk:vector(packetBytes) ETV
attr interpolationmode none
attr source packetSentToUpper
attr title "packets passed to higher layer, vector(packetBytes)"
vector 26 My2Network.host4.eth[0].encap encapPk:vector(packetBytes) ETV
attr interpolationmode none
attr source encapPk
attr title "packets encapsulated, vector(packetBytes)"
vector 27 My2Network.host5.eth[0].encap encapPk:vector(packetBytes) ETV
attr interpolationmode none
attr source encapPk
attr title "packets encapsulated, vector(packetBytes)"
vector 28 My2Network.host6.eth[0].encap encapPk:vector(packetBytes) ETV
attr interpolationmode none
attr source encapPk
attr title "packets encapsulated, vector(packetBytes)"
vector 29 My2Network.host7.eth[0].encap encapPk:vector(packetBytes) ETV
attr interpolationmode none
attr source encapPk
attr title "packets encapsulated, vector(packetBytes)"
vector 30 My2Network.host8.eth[0].encap encapPk:vector(packetBytes) ETV
attr interpolationmode none
attr source encapPk
attr title "packets encapsulated, vector(packetBytes)"
vector 31 My2Network.host9.eth[0].encap encapPk:vector(packetBytes) ETV
attr interpolationmode none
attr source encapPk
attr title "packets encapsulated, vector(packetBytes)"
vector 32 My2Network.host4.eth[0].mac packetReceivedFromUpper:vector(packetBytes) ETV
attr interpolationmode none
attr source packetReceivedFromUpper
attr title "packet bytes from higher layer, vector(packetBytes)"
vector 33 My2Network.host4.eth[0].mac packetDropInterfaceDown:vector(packetBytes) ETV
attr interpolationmode none
attr source packetDropReasonIsInterfaceDown(packetDropped)
attr title "packet drop: interface down, vector(packetBytes)"
vector 34 My2Network.host5.eth[0].mac packetReceivedFromUpper:vector(packetBytes) ETV
attr interpolationmode none
attr source packetReceivedFromUpper
attr title "packet bytes from higher layer, vector(packetBytes)"
vector 35 My2Network.host5.eth[0].mac packetDropInterfaceDown:vector(packetBytes) ETV
attr interpolationmode none
attr source packetDropReasonIsInterfaceDown(packetDropped)
attr title "packet drop: interface down, vector(packetBytes)"
vector 36 My2Network.host6.eth[0].mac packetReceivedFromUpper:vector(packetBytes) ETV
attr interpolationmode none
attr source packetReceivedFromUpper
attr title "packet bytes from higher layer, vector(packetBytes)"
vector 37 My2Network.host6.eth[0].mac packetDropInterfaceDown:vector(packetBytes) ETV
attr interpolationmode none
attr source packetDropReasonIsInterfaceDown(packetDropped)
attr title "packet drop: interface down, vector(packetBytes)"
vector 38 My2Network.host7.eth[0].mac packetReceivedFromUpper:vector(packetBytes) ETV
attr interpolationmode none
attr source packetReceivedFromUpper
attr title "packet bytes from higher layer, vector(packetBytes)"
vector 39 My2Network.host7.eth[0].mac packetDropInterfaceDown:vector(packetBytes) ETV
attr interpolationmode none
attr source packetDropReasonIsInterfaceDown(packetDropped)
attr title "packet drop: interface down, vector(packetBytes)"
vector 40 My2Network.host8.eth[0].mac packetReceivedFromUpper:vector(packetBytes) ETV
attr interpolationmode none
attr source packetReceivedFromUpper
attr title "packet bytes from higher layer, vector(packetBytes)"
vector 41 My2Network.host8.eth[0].mac packetDropInterfaceDown:vector(packetBytes) ETV
attr interpolationmode none
attr source packetDropReasonIsInterfaceDown(packetDropped)
attr title "packet drop: interface down, vector(packetBytes)"
vector 42 My2Network.host9.eth[0].mac packetReceivedFromUpper:vector(packetBytes) ETV
attr interpolationmode none
attr source packetReceivedFromUpper
attr title "packet bytes from higher layer, vector(packetBytes)"
vector 43 My2Network.host9.eth[0].mac packetDropInterfaceDown:vector(packetBytes) ETV
attr interpolationmode none
attr source packetDropReasonIsInterfaceDown(packetDropped)
attr title "packet drop: interface down, vector(packetBytes)"
vector 44 My2Network.host2.udp packetReceived:vector(packetBytes) ETV
attr interpolationmode none
attr source packetReceived
attr title "packets received, vector(packetBytes)"
vector 45 My2Network.host2.udp passedUpPk:vector(count) ETV
attr interpolationmode none
attr source packetSentToUpper
attr title "packets passed up, vector(count)"
vector 46 My2Network.host3.udp packetReceived:vector(packetBytes) ETV
attr interpolationmode none
attr source packetReceived
attr title "packets received, vector(packetBytes)"
vector 47 My2Network.host3.udp passedUpPk:vector(count) ETV
attr interpolationmode none
attr source packetSentToUpper
attr title "packets passed up, vector(count)"
vector 48 My2Network.host2.app[0] packetReceived:vector(packetBytes) ETV
attr interpolationmode none
attr source packetReceived
attr title "packets received, vector(packetBytes)"
vector 49 My2Network.host2.app[0] throughput:vector ETV
attr source throughput(packetReceived)
attr title "throughput, vector"
attr unit bps
vector 50 My2Network.host2.app[0] rcvdPkLifetime:vector ETV
attr interpolationmode none
attr source dataAge(packetReceived)
attr title "received packet lifetime, vector"
attr unit s
vector 51 My2Network.host3.app[0] packetReceived:vector(packetBytes) ETV
attr interpolationmode none
attr source packetReceived
attr title "packets received, vector(packetBytes)"
vector 52 My2Network.host3.app[0] throughput:vector ETV
attr source throughput(packetReceived)
attr title "throughput, vector"
attr unit bps
vector 53 My2Network.host3.app[0] rcvdPkLifetime:vector ETV
attr interpolationmode none
attr source dataAge(packetReceived)
attr title "received packet lifetime, vector"
attr unit s
vector 54 My2Network.host5.lo[0].lo rcvdPkFromHl:vector(packetBytes) ETV
attr interpolationmode none
attr source packetReceivedFromUpper
attr title "packets received from higher layer, vector(packetBytes)"
vector 55 My2Network.host5.lo[0].lo passedUpPk:vector(packetBytes) ETV
attr interpolationmode none
attr source packetSentToUpper
attr title "packets passed to higher layer, vector(packetBytes)"
vector 56 My2Network.host5.udp packetReceived:vector(packetBytes) ETV
attr interpolationmode none
attr source packetReceived
attr title "packets received, vector(packetBytes)"
vector 57 My2Network.host5.udp passedUpPk:vector(count) ETV
attr interpolationmode none
attr source packetSentToUpper
attr title "packets passed up, vector(count)"
vector 58 My2Network.host5.app[0] packetReceived:vector(packetBytes) ETV
attr interpolationmode none
attr source packetReceived
attr title "packets received, vector(packetBytes)"
vector 59 My2Network.host5.app[0] throughput:vector ETV
attr source throughput(packetReceived)
attr title "throughput, vector"
attr unit bps
vector 60 My2Network.host5.app[0] rcvdPkLifetime:vector ETV
attr interpolationmode none
attr source dataAge(packetReceived)
attr title "received packet lifetime, vector"
attr unit s
vector 61 My2Network.host3.ipv4.arp arpRequestSent:vector(packetBytes) ETV
attr source arpRequestSent
attr title "ARP request sent, vector(packetBytes)"
vector 62 My2Network.host3.eth[0].encap encapPk:vector(packetBytes) ETV
attr interpolationmode none
attr source encapPk
attr title "packets encapsulated, vector(packetBytes)"
vector 63 My2Network.host3.eth[0].mac packetReceivedFromUpper:vector(packetBytes) ETV
attr interpolationmode none
attr source packetReceivedFromUpper
attr title "packet bytes from higher layer, vector(packetBytes)"
vector 64 My2Network.host3.eth[0].mac packetDropInterfaceDown:vector(packetBytes) ETV
attr interpolationmode none
attr source packetDropReasonIsInterfaceDown(packetDropped)
attr title "packet drop: interface down, vector(packetBytes)"
vector 65 My2Network.host4.lo[0].lo rcvdPkFromHl:vector(packetBytes) ETV
attr interpolationmode none
attr source packetReceivedFromUpper
attr title "packets received from higher layer, vector(packetBytes)"
vector 66 My2Network.host4.lo[0].lo passedUpPk:vector(packetBytes) ETV
attr interpolationmode none
attr source packetSentToUpper
attr title "packets passed to higher layer, vector(packetBytes)"
vector 67 My2Network.host8.lo[0].lo rcvdPkFromHl:vector(packetBytes) ETV
attr interpolationmode none
attr source packetReceivedFromUpper
attr title "packets received from higher layer, vector(packetBytes)"
vector 68 My2Network.host8.lo[0].lo passedUpPk:vector(packetBytes) ETV
attr interpolationmode none
attr source packetSentToUpper
attr title "packets passed to higher layer, vector(packetBytes)"
vector 69 My2Network.host4.udp packetReceived:vector(packetBytes) ETV
attr interpolationmode none
attr source packetReceived
attr title "packets received, vector(packetBytes)"
vector 70 My2Network.host4.udp passedUpPk:vector(count) ETV
attr interpolationmode none
attr source packetSentToUpper
attr title "packets passed up, vector(count)"
vector 71 My2Network.host8.udp packetReceived:vector(packetBytes) ETV
attr interpolationmode none
attr source packetReceived
attr title "packets received, vector(packetBytes)"
vector 72 My2Network.host8.udp passedUpPk:vector(count) ETV
attr interpolationmode none
attr source packetSentToUpper
attr title "packets passed up, vector(count)"
vector 73 My2Network.host4.app[0] packetReceived:vector(packetBytes) ETV
attr interpolationmode none
attr source packetReceived
attr title "packets received, vector(packetBytes)"
vector 74 My2Network.host4.app[0] throughput:vector ETV
attr source throughput(packetReceived)
attr title "throughput, vector"
attr unit bps
vector 75 My2Network.host4.app[0] rcvdPkLifetime:vector ETV
attr interpolationmode none
attr source dataAge(packetReceived)
attr title "received packet lifetime, vector"
attr unit s
vector 76 My2Network.host8.app[0] packetReceived:vector(packetBytes) ETV
attr interpolationmode none
attr source packetReceived
attr title "packets received, vector(packetBytes)"
vector 77 My2Network.host8.app[0] throughput:vector ETV
attr source throughput(packetReceived)
attr title "throughput, vector"
attr unit bps
vector 78 My2Network.host8.app[0] rcvdPkLifetime:vector ETV
attr interpolationmode none
attr source dataAge(packetReceived)
attr title "received packet lifetime, vector"
attr unit s
vector 79 My2Network.host6.lo[0].lo rcvdPkFromHl:vector(packetBytes) ETV
attr interpolationmode none
attr source packetReceivedFromUpper
attr title "packets received from higher layer, vector(packetBytes)"
vector 80 My2Network.host6.lo[0].lo passedUpPk:vector(packetBytes) ETV
attr interpolationmode none
attr source packetSentToUpper
attr title "packets passed to higher layer, vector(packetBytes)"
vector 81 My2Network.host6.udp packetReceived:vector(packetBytes) ETV
attr interpolationmode none
attr source packetReceived
attr title "packets received, vector(packetBytes)"
vector 82 My2Network.host6.udp passedUpPk:vector(count) ETV
attr interpolationmode none
attr source packetSentToUpper
attr title "packets passed up, vector(count)"
vector 83 My2Network.host6.app[0] packetReceived:vector(packetBytes) ETV
attr interpolationmode none
attr source packetReceived
attr title "packets received, vector(packetBytes)"
vector 84 My2Network.host6.app[0] throughput:vector ETV
attr source throughput(packetReceived)
attr title "throughput, vector"
attr unit bps
vector 85 My2Network.host6.app[0] rcvdPkLifetime:vector ETV
attr interpolationmode none
attr source dataAge(packetReceived)
attr title "received packet lifetime, vector"
attr unit s
vector 86 My2Network.host4.ipv4.ip packetDropAddressResolutionFailed:vector(packetBytes) ETV
attr interpolationmode none
attr source packetDropReasonIsAddressResolutionFailed(packetDropped)
attr title "packet drop: address resolution failed, vector(packetBytes)"
vector 87 My2Network.host5.ipv4.ip packetDropAddressResolutionFailed:vector(packetBytes) ETV
attr interpolationmode none
attr source packetDropReasonIsAddressResolutionFailed(packetDropped)
attr title "packet drop: address resolution failed, vector(packetBytes)"
vector 88 My2Network.host6.ipv4.ip packetDropAddressResolutionFailed:vector(packetBytes) ETV
attr interpolationmode none
attr source packetDropReasonIsAddressResolutionFailed(packetDropped)
attr title "packet drop: address resolution failed, vector(packetBytes)"
vector 89 My2Network.host7.ipv4.ip packetDropAddressResolutionFailed:vector(packetBytes) ETV
attr interpolationmode none
attr source packetDropReasonIsAddressResolutionFailed(packetDropped)
attr title "packet drop: address resolution failed, vector(packetBytes)"
vector 90 My2Network.host8.ipv4.ip packetDropAddressResolutionFailed:vector(packetBytes) ETV
attr interpolationmode none
attr source packetDropReasonIsAddressResolutionFailed(packetDropped)
attr title "packet drop: address resolution failed, vector(packetBytes)"
vector 91 My2Network.host9.ipv4.ip packetDropAddressResolutionFailed:vector(packetBytes) ETV
attr interpolationmode none
attr source packetDropReasonIsAddressResolutionFailed(packetDropped)
attr title "packet drop: address resolution failed, vector(packetBytes)"
vector 92 My2Network.host7.lo[0].lo rcvdPkFromHl:vector(packetBytes) ETV
attr interpolationmode none
attr source packetReceivedFromUpper
attr title "packets received from higher layer, vector(packetBytes)"
vector 93 My2Network.host7.lo[0].lo passedUpPk:vector(packetBytes) ETV
attr interpolationmode none
attr source packetSentToUpper
attr title "packets passed to higher layer, vector(packetBytes)"
vector 94 My2Network.host7.udp packetReceived:vector(packetBytes) ETV
attr interpolationmode none
attr source packetReceived
attr title "packets received, vector(packetBytes)"
vector 95 My2Network.host7.udp passedUpPk:vector(count) ETV
attr interpolationmode none
attr source packetSentToUpper
attr title "packets passed up, vector(count)"
vector 96 My2Network.host7.app[0] packetReceived:vector(packetBytes) ETV
attr interpolationmode none
attr source packetReceived
attr title "packets received, vector(packetBytes)"
vector 97 My2Network.host7.app[0] throughput:vector ETV
attr source throughput(packetReceived)
attr title "throughput, vector"
attr unit bps
vector 98 My2Network.host7.app[0] rcvdPkLifetime:vector ETV
attr interpolationmode none
attr source dataAge(packetReceived)
attr title "received packet lifetime, vector"
attr unit s
vector 99 My2Network.host3.ipv4.ip packetDropAddressResolutionFailed:vector(packetBytes) ETV
attr interpolationmode none
attr source packetDropReasonIsAddressResolutionFailed(packetDropped)
attr title "packet drop: address resolution failed, vector(packetBytes)"
vector 100 My2Network.host9.lo[0].lo rcvdPkFromHl:vector(packetBytes) ETV
attr interpolationmode none
attr source packetReceivedFromUpper
attr title "packets received from higher layer, vector(packetBytes)"
vector 101 My2Network.host9.lo[0].lo passedUpPk:vector(packetBytes) ETV
attr interpolationmode none
attr source packetSentToUpper
attr title "packets passed to higher layer, vector(packetBytes)"
vector 102 My2Network.host9.udp packetReceived:vector(packetBytes) ETV
attr interpolationmode none
attr source packetReceived
attr title "packets received, vector(packetBytes)"
vector 103 My2Network.host9.udp passedUpPk:vector(count) ETV
attr interpolationmode none
attr source packetSentToUpper
attr title "packets passed up, vector(count)"
vector 104 My2Network.host9.app[0] packetReceived:vector(packetBytes) ETV
attr interpolationmode none
attr source packetReceived
attr title "packets received, vector(packetBytes)"
vector 105 My2Network.host9.app[0] throughput:vector ETV
attr source throughput(packetReceived)
attr title "throughput, vector"
attr unit bps
vector 106 My2Network.host9.app[0] rcvdPkLifetime:vector ETV
attr interpolationmode none
attr source dataAge(packetReceived)
attr title "received packet lifetime, vector"
attr unit s
0	1	0.4	1000
0	53	0.8	1000
0	95	1.2	1000
0	155	1.6	1000
0	196	2	1000
0	241	2.4	1000
0	298	2.8	1000
0	350	3.2	1000
0	404	3.6	1000
0	454	4	1000
0	506	4.4	1000
0	555	4.8	1000
0	598	5.2	1000
0	649	5.6	1000
0	693	6	1000
0	751	6.4	1000
0	810	6.8	1000
0	867	7.2	1000
0	919	7.6	1000
0	967	8	1000
0	1010	8.4	1000
0	1070	8.8	1000
0	1127	9.2	1000
0	1168	9.6	1000
0	1219	10	1000
0	1265	10.4	1000
0	1314	10.8	1000
0	1371	11.2	1000
0	1421	11.6	1000
0	1481	12	1000
0	1545	12.4	1000
0	1595	12.8	1000
0	1646	13.2	1000
0	1694	13.6	1000
0	1744	14	1000
0	1794	14.4	1000
0	1842	14.8	1000
0	1888	15.2	1000
0	1943	15.6	1000
0	1997	16	1000
0	2046	16.4	1000
0	2097	16.8	1000
0	2151	17.2	1000
0	2203	17.6	1000
0	2251	18	1000
0	2296	18.4	1000
0	2348	18.8	1000
0	2398	19.2	1000
0	2445	19.6	1000
0	2505	20	1000
0	2557	20.4	1000
0	2605	20.8	1000
0	2651	21.2	1000
0	2697	21.6	1000
0	2745	22	1000
0	2798	22.4	1000
0	2843	22.8	1000
0	2896	23.2	1000
0	2944	23.6	1000
0	2997	24	1000
0	3035	24.4	1000
0	3089	24.8	1000
0	3131	25.2	1000
0	3187	25.6	1000
0	3241	26	1000
0	3293	26.4	1000
0	3352	26.8	1000
0	3406	27.2	1000
0	3463	27.6	1000
0	3513	28	1000
0	3561	28.4	1000
0	3612	28.8	1000
0	3661	29.2	1000
0	3708	29.6	1000
0	3762	30	1000
0	3811	30.4	1000
0	3857	30.8	1000
0	3916	31.2	1000
0	3960	31.6	1000
0	4013	32	1000
0	4067	32.4	1000
0	4114	32.8	1000
0	4162	33.2	1000
0	4214	33.6	1000
0	4260	34	1000
0	4308	34.4	1000
0	4358	34.8	1000
0	4409	35.2	1000
0	4464	35.6	1000
0	4514	36	1000
0	4562	36.4	1000
0	4617	36.8	1000
0	4657	37.2	1000
0	4707	37.6	1000
0	4758	38	1000
0	4803	38.4	1000
0	4859	38.8	1000
0	4907	39.2	1000
0	4951	39.6	1000
0	5005	40	1000
0	5042	40.4	1000
0	5088	40.8	1000
0	5130	41.2	1000
0	5184	41.6	1000
0	5244	42	1000
0	5288	42.4	1000
0	5338	42.8	1000
0	5393	43.2	1000
0	5449	43.6	1000
0	5489	44	1000
0	5536	44.4	1000
0	5587	44.8	1000
0	5639	45.2	1000
0	5683	45.6	1000
0	5732	46	1000
0	5782	46.4	1000
0	5832	46.8	1000
0	5881	47.2	1000
0	5940	47.6	1000
0	5983	48	1000
0	6034	48.4	1000
0	6087	48.8	1000
0	6145	49.2	1000
0	6203	49.6	1000
0	6253	50	1000
0	6304	50.4	1000
0	6352	50.8	1000
0	6392	51.2	1000
0	6450	51.6	1000
0	6495	52	1000
0	6545	52.4	1000
0	6598	52.8	1000
0	6652	53.2	1000
0	6707	53.6	1000
0	6766	54	1000
0	6820	54.4	1000
0	6869	54.8	1000
0	6916	55.2	1000
0	6970	55.6	1000
0	7021	56	1000
0	7081	56.4	1000
0	7140	56.8	1000
0	7182	57.2	1000
0	7242	57.6	1000
0	7294	58	1000
0	7346	58.4	1000
0	7391	58.8	1000
0	7442	59.2	1000
0	7502	59.6	1000
0	7553	60	1000
0	7609	60.4	1000
0	7654	60.8	1000
0	7703	61.2	1000
0	7748	61.6	1000
0	7799	62	1000
0	7846	62.4	1000
0	7904	62.8	1000
0	7953	63.2	1000
0	8012	63.6	1000
0	8069	64	1000
0	8122	64.4	1000
0	8177	64.8	1000
0	8227	65.2	1000
0	8275	65.6	1000
0	8327	66	1000
0	8368	66.4	1000
0	8424	66.8	1000
0	8463	67.2	1000
0	8507	67.6	1000
0	8561	68	1000
0	8612	68.4	1000
0	8666	68.8	1000
0	8722	69.2	1000
0	8780	69.6	1000
0	8829	70	1000
0	8884	70.4	1000
0	8932	70.8	1000
0	8990	71.2	1000
0	9042	71.6	1000
0	9090	72	1000
0	9150	72.4	1000
0	9197	72.8	1000
0	9256	73.2	1000
0	9301	73.6	1000
0	9345	74	1000
0	9401	74.4	1000
0	9439	74.8	1000
0	9487	75.2	1000
0	9536	75.6	1000
0	9591	76	1000
0	9648	76.4	1000
0	9707	76.8	1000
0	9763	77.2	1000
0	9815	77.6	1000
0	9862	78	1000
0	9913	78.4	1000
0	9960	78.8	1000
0	10007	79.2	1000
0	10059	79.6	1000
0	10115	80	1000
0	10165	80.4	1000
0	10216	80.8	1000
0	10265	81.2	1000
0	10315	81.6	1000
0	10367	82	1000
0	10411	82.4	1000
0	10459	82.8	1000
0	10499	83.2	1000
0	10547	83.6	1000
0	10593	84	1000
0	10646	84.4	1000
0	10703	84.8	1000
0	10749	85.2	1000
0	10805	85.6	1000
0	10856	86	1000
0	10896	86.4	1000
0	10946	86.8	1000
0	10998	87.2	1000
0	11040	87.6	1000
0	11078	88	1000
0	11122	88.4	1000
0	11166	88.8	1000
0	11212	89.2	1000
0	11265	89.6	1000
0	11321	90	1000
0	11369	90.4	1000
0	11417	90.8	1000
0	11477	91.2	1000
0	11528	91.6	1000
0	11576	92	1000
0	11629	92.4	1000
0	11679	92.8	1000
0	11725	93.2	1000
0	11782	93.6	1000
0	11843	94	1000
0	11898	94.4	1000
0	11944	94.8	1000
0	11999	95.2	1000
0	12037	95.6	1000
0	12084	96	1000
0	12131	96.4	1000
0	12187	96.8	1000
0	12240	97.2	1000
0	12295	97.6	1000
0	12355	98	1000
0	12406	98.4	1000
0	12458	98.8	1000
0	12516	99.2	1000
0	12562	99.6	1000
1	2	0.4	1000
1	54	0.8	1000
1	96	1.2	1000
1	156	1.6	1000
1	197	2	1000
1	242	2.4	1000
1	299	2.8	1000
1	351	3.2	1000
1	405	3.6	1000
1	455	4	1000
1	507	4.4	1000
1	556	4.8	1000
1	599	5.2	1000
1	650	5.6	1000
1	694	6	1000
1	752	6.4	1000
1	811	6.8	1000
1	868	7.2	1000
1	920	7.6	1000
1	968	8	1000
1	1011	8.4	1000
1	1071	8.8	1000
1	1128	9.2	1000
1	1169	9.6	1000
1	1220	10	1000
1	1266	10.4	1000
1	1315	10.8	1000
1	1372	11.2	1000
1	1422	11.6	1000
1	1482	12	1000
1	1546	12.4	1000
1	1596	12.8	1000
1	1647	13.2	1000
1	1695	13.6	1000
1	1745	14	1000
1	1795	14.4	1000
1	1843	14.8	1000
1	1889	15.2	1000
1	1944	15.6	1000
1	1998	16	1000
1	2047	16.4	1000
1	2098	16.8	1000
1	2152	17.2	1000
1	2204	17.6	1000
1	2252	18	1000
1	2297	18.4	1000
1	2349	18.8	1000
1	2399	19.2	1000
1	2446	19.6	1000
1	2506	20	1000
1	2558	20.4	1000
1	2606	20.8	1000
1	2652	21.2	1000
1	2698	21.6	1000
1	2746	22	1000
1	2799	22.4	1000
1	2844	22.8	1000
1	2897	23.2	1000
1	2945	23.6	1000
1	2998	24	1000
1	3036	24.4	1000
1	3090	24.8	1000
1	3132	25.2	1000
1	3188	25.6	1000
1	3242	26	1000
1	3294	26.4	1000
1	3353	26.8	1000
1	3407	27.2	1000
1	3464	27.6	1000
1	3514	28	1000
1	3562	28.4	1000
1	3613	28.8	1000
1	3662	29.2	1000
1	3709	29.6	1000
1	3763	30	1000
1	3812	30.4	1000
1	3858	30.8	1000
1	3917	31.2	1000
1	3961	31.6	1000
1	4014	32	1000
1	4068	32.4	1000
1	4115	32.8	1000
1	4163	33.2	1000
1	4215	33.6	1000
1	4261	34	1000
1	4309	34.4	1000
1	4359	34.8	1000
1	4410	35.2	1000
1	4465	35.6	1000
1	4515	36	1000
1	4563	36.4	1000
1	4618	36.8	1000
1	4658	37.2	1000
1	4708	37.6	1000
1	4759	38	1000
1	4804	38.4	1000
1	4860	38.8	1000
1	4908	39.2	1000
1	4952	39.6	1000
1	5006	40	1000
1	5043	40.4	1000
1	5089	40.8	1000
1	5131	41.2	1000
1	5185	41.6	1000
1	5245	42	1000
1	5289	42.4	1000
1	5339	42.8	1000
1	5394	43.2	1000
1	5450	43.6	1000
1	5490	44	1000
1	5537	44.4	1000
1	5588	44.8	1000
1	5640	45.2	1000
1	5684	45.6	1000
1	5733	46	1000
1	5783	46.4	1000
1	5833	46.8	1000
1	5882	47.2	1000
1	5941	47.6	1000
1	5984	48	1000
1	6035	48.4	1000
1	6088	48.8	1000
1	6146	49.2	1000
1	6204	49.6	1000
1	6254	50	1000
1	6305	50.4	1000
1	6353	50.8	1000
1	6393	51.2	1000
1	6451	51.6	1000
1	6496	52	1000
1	6546	52.4	1000
1	6599	52.8	1000
1	6653	53.2	1000
1	6708	53.6	1000
1	6767	54	1000
1	6821	54.4	1000
1	6870	54.8	1000
1	6917	55.2	1000
1	6971	55.6	1000
1	7022	56	1000
1	7082	56.4	1000
1	7141	56.8	1000
1	7183	57.2	1000
1	7243	57.6	1000
1	7295	58	1000
1	7347	58.4	1000
1	7392	58.8	1000
1	7443	59.2	1000
1	7503	59.6	1000
1	7554	60	1000
1	7610	60.4	1000
1	7655	60.8	1000
1	7704	61.2	1000
1	7749	61.6	1000
1	7800	62	1000
1	7847	62.4	1000
1	7905	62.8	1000
1	7954	63.2	1000
1	8013	63.6	1000
1	8070	64	1000
1	8123	64.4	1000
1	8178	64.8	1000
1	8228	65.2	1000
1	8276	65.6	1000
1	8328	66	1000
1	8369	66.4	1000
1	8425	66.8	1000
1	8464	67.2	1000
1	8508	67.6	1000
1	8562	68	1000
1	8613	68.4	1000
1	8667	68.8	1000
1	8723	69.2	1000
1	8781	69.6	1000
1	8830	70	1000
1	8885	70.4	1000
1	8933	70.8	1000
1	8991	71.2	1000
1	9043	71.6	1000
1	9091	72	1000
1	9151	72.4	1000
1	9198	72.8	1000
1	9257	73.2	1000
1	9302	73.6	1000
1	9346	74	1000
1	9402	74.4	1000
1	9440	74.8	1000
1	9488	75.2	1000
1	9537	75.6	1000
1	9592	76	1000
1	9649	76.4	1000
1	9708	76.8	1000
1	9764	77.2	1000
1	9816	77.6	1000
1	9863	78	1000
1	9914	78.4	1000
1	9961	78.8	1000
1	10008	79.2	1000
1	10060	79.6	1000
1	10116	80	1000
1	10166	80.4	1000
1	10217	80.8	1000
1	10266	81.2	1000
1	10316	81.6	1000
1	10368	82	1000
1	10412	82.4	1000
1	10460	82.8	1000
1	10500	83.2	1000
1	10548	83.6	1000
1	10594	84	1000
1	10647	84.4	1000
1	10704	84.8	1000
1	10750	85.2	1000
1	10806	85.6	1000
1	10857	86	1000
1	10897	86.4	1000
1	10947	86.8	1000
1	10999	87.2	1000
1	11041	87.6	1000
1	11079	88	1000
1	11123	88.4	1000
1	11167	88.8	1000
1	11213	89.2	1000
1	11266	89.6	1000
1	11322	90	1000
1	11370	90.4	1000
1	11418	90.8	1000
1	11478	91.2	1000
1	11529	91.6	1000
1	11577	92	1000
1	11630	92.4	1000
1	11680	92.8	1000
1	11726	93.2	1000
1	11783	93.6	1000
1	11844	94	1000
1	11899	94.4	1000
1	11945	94.8	1000
1	12000	95.2	1000
1	12038	95.6	1000
1	12085	96	1000
1	12132	96.4	1000
1	12188	96.8	1000
1	12241	97.2	1000
1	12296	97.6	1000
1	12356	98	1000
1	12407	98.4	1000
1	12459	98.8	1000
1	12517	99.2	1000
1	12563	99.6	1000
2	3	0.4	1000
2	55	0.8	1000
2	97	1.2	1000
2	157	1.6	1000
2	198	2	1000
2	243	2.4	1000
2	300	2.8	1000
2	352	3.2	1000
2	406	3.6	1000
2	456	4	1000
2	508	4.4	1000
2	557	4.8	1000
2	600	5.2	1000
2	651	5.6	1000
2	695	6	1000
2	753	6.4	1000
2	812	6.8	1000
2	869	7.2	1000
2	921	7.6	1000
2	969	8	1000
2	1012	8.4	1000
2	1072	8.8	1000
2	1129	9.2	1000
2	1170	9.6	1000
2	1221	10	1000
2	1267	10.4	1000
2	1316	10.8	1000
2	1373	11.2	1000
2	1423	11.6	1000
2	1483	12	1000
2	1547	12.4	1000
2	1597	12.8	1000
2	1648	13.2	1000
2	1696	13.6	1000
2	1746	14	1000
2	1796	14.4	1000
2	1844	14.8	1000
2	1890	15.2	1000
2	1945	15.6	1000
2	1999	16	1000
2	2048	16.4	1000
2	2099	16.8	1000
2	2153	17.2	1000
2	2205	17.6	1000
2	2253	18	1000
2	2298	18.4	1000
2	2350	18.8	1000
2	2400	19.2	1000
2	2447	19.6	1000
2	2507	20	1000
2	2559	20.4	1000
2	2607	20.8	1000
2	2653	21.2	1000
2	2699	21.6	1000
2	2747	22	1000
2	2800	22.4	1000
2	2845	22.8	1000
2	2898	23.2	1000
2	2946	23.6	1000
2	2999	24	1000
2	3037	24.4	1000
2	3091	24.8	1000
2	3133	25.2	1000
2	3189	25.6	1000
2	3243	26	1000
2	3295	26.4	1000
2	3354	26.8	1000
2	3408	27.2	1000
2	3465	27.6	1000
2	3515	28	1000
2	3563	28.4	1000
2	3614	28.8	1000
2	3663	29.2	1000
2	3710	29.6	1000
2	3764	30	1000
2	3813	30.4	1000
2	3859	30.8	1000
2	3918	31.2	1000
2	3962	31.6	1000
2	4015	32	1000
2	4069	32.4	1000
2	4116	32.8	1000
2	4164	33.2	1000
2	4216	33.6	1000
2	4262	34	1000
2	4310	34.4	1000
2	4360	34.8	1000
2	4411	35.2	1000
2	4466	35.6	1000
2	4516	36	1000
2	4564	36.4	1000
2	4619	36.8	1000
2	4659	37.2	1000
2	4709	37.6	1000
2	4760	38	1000
2	4805	38.4	1000
2	4861	38.8	1000
2	4909	39.2	1000
2	4953	39.6	1000
2	5007	40	1000
2	5044	40.4	1000
2	5090	40.8	1000
2	5132	41.2	1000
2	5186	41.6	1000
2	5246	42	1000
2	5290	42.4	1000
2	5340	42.8	1000
2	5395	43.2	1000
2	5451	43.6	1000
2	5491	44	1000
2	5538	44.4	1000
2	5589	44.8	1000
2	5641	45.2	1000
2	5685	45.6	1000
2	5734	46	1000
2	5784	46.4	1000
2	5834	46.8	1000
2	5883	47.2	1000
2	5942	47.6	1000
2	5985	48	1000
2	6036	48.4	1000
2	6089	48.8	1000
2	6147	49.2	1000
2	6205	49.6	1000
2	6255	50	1000
2	6306	50.4	1000
2	6354	50.8	1000
2	6394	51.2	1000
2	6452	51.6	1000
2	6497	52	1000
2	6547	52.4	1000
2	6600	52.8	1000
2	6654	53.2	1000
2	6709	53.6	1000
2	6768	54	1000
2	6822	54.4	1000
2	6871	54.8	1000
2	6918	55.2	1000
2	6972	55.6	1000
2	7023	56	1000
2	7083	56.4	1000
2	7142	56.8	1000
2	7184	57.2	1000
2	7244	57.6	1000
2	7296	58	1000
2	7348	58.4	1000
2	7393	58.8	1000
2	7444	59.2	1000
2	7504	59.6	1000
2	7555	60	1000
2	7611	60.4	1000
2	7656	60.8	1000
2	7705	61.2	1000
2	7750	61.6	1000
2	7801	62	1000
2	7848	62.4	1000
2	7906	62.8	1000
2	7955	63.2	1000
2	8014	63.6	1000
2	8071	64	1000
2	8124	64.4	1000
2	8179	64.8	1000
2	8229	65.2	1000
2	8277	65.6	1000
2	8329	66	1000
2	8370	66.4	1000
2	8426	66.8	1000
2	8465	67.2	1000
2	8509	67.6	1000
2	8563	68	1000
2	8614	68.4	1000
2	8668	68.8	1000
2	8724	69.2	1000
2	8782	69.6	1000
2	8831	70	1000
2	8886	70.4	1000
2	8934	70.8	1000
2	8992	71.2	1000
2	9044	71.6	1000
2	9092	72	1000
2	9152	72.4	1000
2	9199	72.8	1000
2	9258	73.2	1000
2	9303	73.6	1000
2	9347	74	1000
2	9403	74.4	1000
2	9441	74.8	1000
2	9489	75.2	1000
2	9538	75.6	1000
2	9593	76	1000
2	9650	76.4	1000
2	9709	76.8	1000
2	9765	77.2	1000
2	9817	77.6	1000
2	9864	78	1000
2	9915	78.4	1000
2	9962	78.8	1000
2	10009	79.2	1000
2	10061	79.6	1000
2	10117	80	1000
2	10167	80.4	1000
2	10218	80.8	1000
2	10267	81.2	1000
2	10317	81.6	1000
2	10369	82	1000
2	10413	82.4	1000
2	10461	82.8	1000
2	10501	83.2	1000
2	10549	83.6	1000
2	10595	84	1000
2	10648	84.4	1000
2	10705	84.8	1000
2	10751	85.2	1000
2	10807	85.6	1000
2	10858	86	1000
2	10898	86.4	1000
2	10948	86.8	1000
2	11000	87.2	1000
2	11042	87.6	1000
2	11080	88	1000
2	11124	88.4	1000
2	11168	88.8	1000
2	11214	89.2	1000
2	11267	89.6	1000
2	11323	90	1000
2	11371	90.4	1000
2	11419	90.8	1000
2	11479	91.2	1000
2	11530	91.6	1000
2	11578	92	1000
2	11631	92.4	1000
2	11681	92.8	1000
2	11727	93.2	1000
2	11784	93.6	1000
2	11845	94	1000
2	11900	94.4	1000
2	11946	94.8	1000
2	12001	95.2	1000
2	12039	95.6	1000
2	12086	96	1000
2	12133	96.4	1000
2	12189	96.8	1000
2	12242	97.2	1000
2	12297	97.6	1000
2	12357	98	1000
2	12408	98.4	1000
2	12460	98.8	1000
2	12518	99.2	1000
2	12564	99.6	1000
3	4	0.4	1000
3	56	0.8	1000
3	98	1.2	1000
3	158	1.6	1000
3	199	2	1000
3	244	2.4	1000
3	301	2.8	1000
3	353	3.2	1000
3	407	3.6	1000
3	457	4	1000
3	509	4.4	1000
3	558	4.8	1000
3	601	5.2	1000
3	652	5.6	1000
3	696	6	1000
3	754	6.4	1000
3	813	6.8	1000
3	870	7.2	1000
3	922	7.6	1000
3	970	8	1000
3	1013	8.4	1000
3	1073	8.8	1000
3	1130	9.2	1000
3	1171	9.6	1000
3	1222	10	1000
3	1268	10.4	1000
3	1317	10.8	1000
3	1374	11.2	1000
3	1424	11.6	1000
3	1484	12	1000
3	1548	12.4	1000
3	1598	12.8	1000
3	1649	13.2	1000
3	1697	13.6	1000
3	1747	14	1000
3	1797	14.4	1000
3	1845	14.8	1000
3	1891	15.2	1000
3	1946	15.6	1000
3	2000	16	1000
3	2049	16.4	1000
3	2100	16.8	1000
3	2154	17.2	1000
3	2206	17.6	1000
3	2254	18	1000
3	2299	18.4	1000
3	2351	18.8	1000
3	2401	19.2	1000
3	2448	19.6	1000
3	2508	20	1000
3	2560	20.4	1000
3	2608	20.8	1000
3	2654	21.2	1000
3	2700	21.6	1000
3	2748	22	1000
3	2801	22.4	1000
3	2846	22.8	1000
3	2899	23.2	1000
3	2947	23.6	1000
3	3000	24	1000
3	3038	24.4	1000
3	3092	24.8	1000
3	3134	25.2	1000
3	3190	25.6	1000
3	3244	26	1000
3	3296	26.4	1000
3	3355	26.8	1000
3	3409	27.2	1000
3	3466	27.6	1000
3	3516	28	1000
3	3564	28.4	1000
3	3615	28.8	1000
3	3664	29.2	1000
3	3711	29.6	1000
3	3765	30	1000
3	3814	30.4	1000
3	3860	30.8	1000
3	3919	31.2	1000
3	3963	31.6	1000
3	4016	32	1000
3	4070	32.4	1000
3	4117	32.8	1000
3	4165	33.2	1000
3	4217	33.6	1000
3	4263	34	1000
3	4311	34.4	1000
3	4361	34.8	1000
3	4412	35.2	1000
3	4467	35.6	1000
3	4517	36	1000
3	4565	36.4	1000
3	4620	36.8	1000
3	4660	37.2	1000
3	4710	37.6	1000
3	4761	38	1000
3	4806	38.4	1000
3	4862	38.8	1000
3	4910	39.2	1000
3	4954	39.6	1000
3	5008	40	1000
3	5045	40.4	1000
3	5091	40.8	1000
3	5133	41.2	1000
3	5187	41.6	1000
3	5247	42	1000
3	5291	42.4	1000
3	5341	42.8	1000
3	5396	43.2	1000
3	5452	43.6	1000
3	5492	44	1000
3	5539	44.4	1000
3	5590	44.8	1000
3	5642	45.2	1000
3	5686	45.6	1000
3	5735	46	1000
3	5785	46.4	1000
3	5835	46.8	1000
3	5884	47.2	1000
3	5943	47.6	1000
3	5986	48	1000
3	6037	48.4	1000
3	6090	48.8	1000
3	6148	49.2	1000
3	6206	49.6	1000
3	6256	50	1000
3	6307	50.4	1000
3	6355	50.8	1000
3	6395	51.2	1000
3	6453	51.6	1000
3	6498	52	1000
3	6548	52.4	1000
3	6601	52.8	1000
3	6655	53.2	1000
3	6710	53.6	1000
3	6769	54	1000
3	6823	54.4	1000
3	6872	54.8	1000
3	6919	55.2	1000
3	6973	55.6	1000
3	7024	56	1000
3	7084	56.4	1000
3	7143	56.8	1000
3	7185	57.2	1000
3	7245	57.6	1000
3	7297	58	1000
3	7349	58.4	1000
3	7394	58.8	1000
3	7445	59.2	1000
3	7505	59.6	1000
3	7556	60	1000
3	7612	60.4	1000
3	7657	60.8	1000
3	7706	61.2	1000
3	7751	61.6	1000
3	7802	62	1000
3	7849	62.4	1000
3	7907	62.8	1000
3	7956	63.2	1000
3	8015	63.6	1000
3	8072	64	1000
3	8125	64.4	1000
3	8180	64.8	1000
3	8230	65.2	1000
3	8278	65.6	1000
3	8330	66	1000
3	8371	66.4	1000
3	8427	66.8	1000
3	8466	67.2	1000
3	8510	67.6	1000
3	8564	68	1000
3	8615	68.4	1000
3	8669	68.8	1000
3	8725	69.2	1000
3	8783	69.6	1000
3	8832	70	1000
3	8887	70.4	1000
3	8935	70.8	1000
3	8993	71.2	1000
3	9045	71.6	1000
3	9093	72	1000
3	9153	72.4	1000
3	9200	72.8	1000
3	9259	73.2	1000
3	9304	73.6	1000
3	9348	74	1000
3	9404	74.4	1000
3	9442	74.8	1000
3	9490	75.2	1000
3	9539	75.6	1000
3	9594	76	1000
3	9651	76.4	1000
3	9710	76.8	1000
3	9766	77.2	1000
3	9818	77.6	1000
3	9865	78	1000
3	9916	78.4	1000
3	9963	78.8	1000
3	10010	79.2	1000
3	10062	79.6	1000
3	10118	80	1000
3	10168	80.4	1000
3	10219	80.8	1000
3	10268	81.2	1000
3	10318	81.6	1000
3	10370	82	1000
3	10414	82.4	1000
3	10462	82.8	1000
3	10502	83.2	1000
3	10550	83.6	1000
3	10596	84	1000
3	10649	84.4	1000
3	10706	84.8	1000
3	10752	85.2	1000
3	10808	85.6	1000
3	10859	86	1000
3	10899	86.4	1000
3	10949	86.8	1000
3	11001	87.2	1000
3	11043	87.6	1000
3	11081	88	1000
3	11125	88.4	1000
3	11169	88.8	1000
3	11215	89.2	1000
3	11268	89.6	1000
3	11324	90	1000
3	11372	90.4	1000
3	11420	90.8	1000
3	11480	91.2	1000
3	11531	91.6	1000
3	11579	92	1000
3	11632	92.4	1000
3	11682	92.8	1000
3	11728	93.2	1000
3	11785	93.6	1000
3	11846	94	1000
3	11901	94.4	1000
3	11947	94.8	1000
3	12002	95.2	1000
3	12040	95.6	1000
3	12087	96	1000
3	12134	96.4	1000
3	12190	96.8	1000
3	12243	97.2	1000
3	12298	97.6	1000
3	12358	98	1000
3	12409	98.4	1000
3	12461	98.8	1000
3	12519	99.2	1000
3	12565	99.6	1000
4	5	0.4	1000
4	57	0.8	1000
4	99	1.2	1000
4	159	1.6	1000
4	200	2	1000
4	245	2.4	1000
4	302	2.8	1000
4	354	3.2	1000
4	408	3.6	1000
4	458	4	1000
4	510	4.4	1000
4	559	4.8	1000
4	602	5.2	1000
4	653	5.6	1000
4	697	6	1000
4	755	6.4	1000
4	814	6.8	1000
4	871	7.2	1000
4	923	7.6	1000
4	971	8	1000
4	1014	8.4	1000
4	1074	8.8	1000
4	1131	9.2	1000
4	1172	9.6	1000
4	1223	10	1000
4	1269	10.4	1000
4	1318	10.8	1000
4	1375	11.2	1000
4	1425	11.6	1000
4	1485	12	1000
4	1549	12.4	1000
4	1599	12.8	1000
4	1650	13.2	1000
4	1698	13.6	1000
4	1748	14	1000
4	1798	14.4	1000
4	1846	14.8	1000
4	1892	15.2	1000
4	1947	15.6	1000
4	2001	16	1000
4	2050	16.4	1000
4	2101	16.8	1000
4	2155	17.2	1000
4	2207	17.6	1000
4	2255	18	1000
4	2300	18.4	1000
4	2352	18.8	1000
4	2402	19.2	1000
4	2449	19.6	1000
4	2509	20	1000
4	2561	20.4	1000
4	2609	20.8	1000
4	2655	21.2	1000
4	2701	21.6	1000
4	2749	22	1000
4	2802	22.4	1000
4	2847	22.8	1000
4	2900	23.2	1000
4	2948	23.6	1000
4	3001	24	1000
4	3039	24.4	1000
4	3093	24.8	1000
4	3135	25.2	1000
4	3191	25.6	1000
4	3245	26	1000
4	3297	26.4	1000
4	3356	26.8	1000
4	3410	27.2	1000
4	3467	27.6	1000
4	3517	28	1000
4	3565	28.4	1000
4	3616	28.8	1000
4	3665	29.2	1000
4	3712	29.6	1000
4	3766	30	1000
4	3815	30.4	1000
4	3861	30.8	1000
4	3920	31.2	1000
4	3964	31.6	1000
4	4017	32	1000
4	4071	32.4	1000
4	4118	32.8	1000
4	4166	33.2	1000
4	4218	33.6	1000
4	4264	34	1000
4	4312	34.4	1000
4	4362	34.8	1000
4	4413	35.2	1000
4	4468	35.6	1000
4	4518	36	1000
4	4566	36.4	1000
4	4621	36.8	1000
4	4661	37.2	1000
4	4711	37.6	1000
4	4762	38	1000
4	4807	38.4	1000
4	4863	38.8	1000
4	4911	39.2	1000
4	4955	39.6	1000
4	5009	40	1000
4	5046	40.4	1000
4	5092	40.8	1000
4	5134	41.2	1000
4	5188	41.6	1000
4	5248	42	1000
4	5292	42.4	1000
4	5342	42.8	1000
4	5397	43.2	1000
4	5453	43.6	1000
4	5493	44	1000
4	5540	44.4	1000
4	5591	44.8	1000
4	5643	45.2	1000
4	5687	45.6	1000
4	5736	46	1000
4	5786	46.4	1000
4	5836	46.8	1000
4	5885	47.2	1000
4	5944	47.6	1000
4	5987	48	1000
4	6038	48.4	1000
4	6091	48.8	1000
4	6149	49.2	1000
4	6207	49.6	1000
4	6257	50	1000
4	6308	50.4	1000
4	6356	50.8	1000
4	6396	51.2	1000
4	6454	51.6	1000
4	6499	52	1000
4	6549	52.4	1000
4	6602	52.8	1000
4	6656	53.2	1000
4	6711	53.6	1000
4	6770	54	1000
4	6824	54.4	1000
4	6873	54.8	1000
4	6920	55.2	1000
4	6974	55.6	1000
4	7025	56	1000
4	7085	56.4	1000
4	7144	56.8	1000
4	7186	57.2	1000
4	7246	57.6	1000
4	7298	58	1000
4	7350	58.4	1000
4	7395	58.8	1000
4	7446	59.2	1000
4	7506	59.6	1000
4	7557	60	1000
4	7613	60.4	1000
4	7658	60.8	1000
4	7707	61.2	1000
4	7752	61.6	1000
4	7803	62	1000
4	7850	62.4	1000
4	7908	62.8	1000
4	7957	63.2	1000
4	8016	63.6	1000
4	8073	64	1000
4	8126	64.4	1000
4	8181	64.8	1000
4	8231	65.2	1000
4	8279	65.6	1000
4	8331	66	1000
4	8372	66.4	1000
4	8428	66.8	1000
4	8467	67.2	1000
4	8511	67.6	1000
4	8565	68	1000
4	8616	68.4	1000
4	8670	68.8	1000
4	8726	69.2	1000
4	8784	69.6	1000
4	8833	70	1000
4	8888	70.4	1000
4	8936	70.8	1000
4	8994	71.2	1000
4	9046	71.6	1000
4	9094	72	1000
4	9154	72.4	1000
4	9201	72.8	1000
4	9260	73.2	1000
4	9305	73.6	1000
4	9349	74	1000
4	9405	74.4	1000
4	9443	74.8	1000
4	9491	75.2	1000
4	9540	75.6	1000
4	9595	76	1000
4	9652	76.4	1000
4	9711	76.8	1000
4	9767	77.2	1000
4	9819	77.6	1000
4	9866	78	1000
4	9917	78.4	1000
4	9964	78.8	1000
4	10011	79.2	1000
4	10063	79.6	1000
4	10119	80	1000
4	10169	80.4	1000
4	10220	80.8	1000
4	10269	81.2	1000
4	10319	81.6	1000
4	10371	82	1000
4	10415	82.4	1000
4	10463	82.8	1000
4	10503	83.2	1000
4	10551	83.6	1000
4	10597	84	1000
4	10650	84.4	1000
4	10707	84.8	1000
4	10753	85.2	1000
4	10809	85.6	1000
4	10860	86	1000
4	10900	86.4	1000
4	10950	86.8	1000
4	11002	87.2	1000
4	11044	87.6	1000
4	11082	88	1000
4	11126	88.4	1000
4	11170	88.8	1000
4	11216	89.2	1000
4	11269	89.6	1000
4	11325	90	1000
4	11373	90.4	1000
4	11421	90.8	1000
4	11481	91.2	1000
4	11532	91.6	1000
4	11580	92	1000
4	11633	92.4	1000
4	11683	92.8	1000
4	11729	93.2	1000
4	11786	93.6	1000
4	11847	94	1000
4	11902	94.4	1000
4	11948	94.8	1000
4	12003	95.2	1000
4	12041	95.6	1000
4	12088	96	1000
4	12135	96.4	1000
4	12191	96.8	1000
4	12244	97.2	1000
4	12299	97.6	1000
4	12359	98	1000
4	12410	98.4	1000
4	12462	98.8	1000
4	12520	99.2	1000
4	12566	99.6	1000
5	6	0.4	1000
5	58	0.8	1000
5	100	1.2	1000
5	160	1.6	1000
5	201	2	1000
5	246	2.4	1000
5	303	2.8	1000
5	355	3.2	1000
5	409	3.6	1000
5	459	4	1000
5	511	4.4	1000
5	560	4.8	1000
5	603	5.2	1000
5	654	5.6	1000
5	698	6	1000
5	756	6.4	1000
5	815	6.8	1000
5	872	7.2	1000
5	924	7.6	1000
5	972	8	1000
5	1015	8.4	1000
5	1075	8.8	1000
5	1132	9.2	1000
5	1173	9.6	1000
5	1224	10	1000
5	1270	10.4	1000
5	1319	10.8	1000
5	1376	11.2	1000
5	1426	11.6	1000
5	1486	12	1000
5	1550	12.4	1000
5	1600	12.8	1000
5	1651	13.2	1000
5	1699	13.6	1000
5	1749	14	1000
5	1799	14.4	1000
5	1847	14.8	1000
5	1893	15.2	1000
5	1948	15.6	1000
5	2002	16	1000
5	2051	16.4	1000
5	2102	16.8	1000
5	2156	17.2	1000
5	2208	17.6	1000
5	2256	18	1000
5	2301	18.4	1000
5	2353	18.8	1000
5	2403	19.2	1000
5	2450	19.6	1000
5	2510	20	1000
5	2562	20.4	1000
5	2610	20.8	1000
5	2656	21.2	1000
5	2702	21.6	1000
5	2750	22	1000
5	2803	22.4	1000
5	2848	22.8	1000
5	2901	23.2	1000
5	2949	23.6	1000
5	3002	24	1000
5	3040	24.4	1000
5	3094	24.8	1000
5	3136	25.2	1000
5	3192	25.6	1000
5	3246	26	1000
5	3298	26.4	1000
5	3357	26.8	1000
5	3411	27.2	1000
5	3468	27.6	1000
5	3518	28	1000
5	3566	28.4	1000
5	3617	28.8	1000
5	3666	29.2	1000
5	3713	29.6	1000
5	3767	30	1000
5	3816	30.4	1000
5	3862	30.8	1000
5	3921	31.2	1000
5	3965	31.6	1000
5	4018	32	1000
5	4072	32.4	1000
5	4119	32.8	1000
5	4167	33.2	1000
5	4219	33.6	1000
5	4265	34	1000
5	4313	34.4	1000
5	4363	34.8	1000
5	4414	35.2	1000
5	4469	35.6	1000
5	4519	36	1000
5	4567	36.4	1000
5	4622	36.8	1000
5	4662	37.2	1000
5	4712	37.6	1000
5	4763	38	1000
5	4808	38.4	1000
5	4864	38.8	1000
5	4912	39.2	1000
5	4956	39.6	1000
5	5010	40	1000
5	5047	40.4	1000
5	5093	40.8	1000
5	5135	41.2	1000
5	5189	41.6	1000
5	5249	42	1000
5	5293	42.4	1000
5	5343	42.8	1000
5	5398	43.2	1000
5	5454	43.6	1000
5	5494	44	1000
5	5541	44.4	1000
5	5592	44.8	1000
5	5644	45.2	1000
5	5688	45.6	1000
5	5737	46	1000
5	5787	46.4	1000
5	5837	46.8	1000
5	5886	47.2	1000
5	5945	47.6	1000
5	5988	48	1000
5	6039	48.4	1000
5	6092	48.8	1000
5	6150	49.2	1000
5	6208	49.6	1000
5	6258	50	1000
5	6309	50.4	1000
5	6357	50.8	1000
5	6397	51.2	1000
5	6455	51.6	1000
5	6500	52	1000
5	6550	52.4	1000
5	6603	52.8	1000
5	6657	53.2	1000
5	6712	53.6	1000
5	6771	54	1000
5	6825	54.4	1000
5	6874	54.8	1000
5	6921	55.2	1000
5	6975	55.6	1000
5	7026	56	1000
5	7086	56.4	1000
5	7145	56.8	1000
5	7187	57.2	1000
5	7247	57.6	1000
5	7299	58	1000
5	7351	58.4	1000
5	7396	58.8	1000
5	7447	59.2	1000
5	7507	59.6	1000
5	7558	60	1000
5	7614	60.4	1000
5	7659	60.8	1000
5	7708	61.2	1000
5	7753	61.6	1000
5	7804	62	1000
5	7851	62.4	1000
5	7909	62.8	1000
5	7958	63.2	1000
5	8017	63.6	1000
5	8074	64	1000
5	8127	64.4	1000
5	8182	64.8	1000
5	8232	65.2	1000
5	8280	65.6	1000
5	8332	66	1000
5	8373	66.4	1000
5	8429	66.8	1000
5	8468	67.2	1000
5	8512	67.6	1000
5	8566	68	1000
5	8617	68.4	1000
5	8671	68.8	1000
5	8727	69.2	1000
5	8785	69.6	1000
5	8834	70	1000
5	8889	70.4	1000
5	8937	70.8	1000
5	8995	71.2	1000
5	9047	71.6	1000
5	9095	72	1000
5	9155	72.4	1000
5	9202	72.8	1000
5	9261	73.2	1000
5	9306	73.6	1000
5	9350	74	1000
5	9406	74.4	1000
5	9444	74.8	1000
5	9492	75.2	1000
5	9541	75.6	1000
5	9596	76	1000
5	9653	76.4	1000
5	9712	76.8	1000
5	9768	77.2	1000
5	9820	77.6	1000
5	9867	78	1000
5	9918	78.4	1000
5	9965	78.8	1000
5	10012	79.2	1000
5	10064	79.6	1000
5	10120	80	1000
5	10170	80.4	1000
5	10221	80.8	1000
5	10270	81.2	1000
5	10320	81.6	1000
5	10372	82	1000
5	10416	82.4	1000
5	10464	82.8	1000
5	10504	83.2	1000
5	10552	83.6	1000
5	10598	84	1000
5	10651	84.4	1000
5	10708	84.8	1000
5	10754	85.2	1000
5	10810	85.6	1000
5	10861	86	1000
5	10901	86.4	1000
5	10951	86.8	1000
5	11003	87.2	1000
5	11045	87.6	1000
5	11083	88	1000
5	11127	88.4	1000
5	11171	88.8	1000
5	11217	89.2	1000
5	11270	89.6	1000
5	11326	90	1000
5	11374	90.4	1000
5	11422	90.8	1000
5	11482	91.2	1000
5	11533	91.6	1000
5	11581	92	1000
5	11634	92.4	1000
5	11684	92.8	1000
5	11730	93.2	1000
5	11787	93.6	1000
5	11848	94	1000
5	11903	94.4	1000
5	11949	94.8	1000
5	12004	95.2	1000
5	12042	95.6	1000
5	12089	96	1000
5	12136	96.4	1000
5	12192	96.8	1000
5	12245	97.2	1000
5	12300	97.6	1000
5	12360	98	1000
5	12411	98.4	1000
5	12463	98.8	1000
5	12521	99.2	1000
5	12567	99.6	1000
6	7	0.4	1000
6	59	0.8	1000
6	101	1.2	1000
6	161	1.6	1000
6	202	2	1000
6	247	2.4	1000
6	304	2.8	1000
6	356	3.2	1000
6	410	3.6	1000
6	460	4	1000
6	512	4.4	1000
6	561	4.8	1000
6	604	5.2	1000
6	655	5.6	1000
6	699	6	1000
6	757	6.4	1000
6	816	6.8	1000
6	873	7.2	1000
6	925	7.6	1000
6	973	8	1000
6	1016	8.4	1000
6	1076	8.8	1000
6	1133	9.2	1000
6	1174	9.6	1000
6	1225	10	1000
6	1271	10.4	1000
6	1320	10.8	1000
6	1377	11.2	1000
6	1427	11.6	1000
6	1487	12	1000
6	1551	12.4	1000
6	1601	12.8	1000
6	1652	13.2	1000
6	1700	13.6	1000
6	1750	14	1000
6	1800	14.4	1000
6	1848	14.8	1000
6	1894	15.2	1000
6	1949	15.6	1000
6	2003	16	1000
6	2052	16.4	1000
6	2103	16.8	1000
6	2157	17.2	1000
6	2209	17.6	1000
6	2257	18	1000
6	2302	18.4	1000
6	2354	18.8	1000
6	2404	19.2	1000
6	2451	19.6	1000
6	2511	20	1000
6	2563	20.4	1000
6	2611	20.8	1000
6	2657	21.2	1000
6	2703	21.6	1000
6	2751	22	1000
6	2804	22.4	1000
6	2849	22.8	1000
6	2902	23.2	1000
6	2950	23.6	1000
6	3003	24	1000
6	3041	24.4	1000
6	3095	24.8	1000
6	3137	25.2	1000
6	3193	25.6	1000
6	3247	26	1000
6	3299	26.4	1000
6	3358	26.8	1000
6	3412	27.2	1000
6	3469	27.6	1000
6	3519	28	1000
6	3567	28.4	1000
6	3618	28.8	1000
6	3667	29.2	1000
6	3714	29.6	1000
6	3768	30	1000
6	3817	30.4	1000
6	3863	30.8	1000
6	3922	31.2	1000
6	3966	31.6	1000
6	4019	32	1000
6	4073	32.4	1000
6	4120	32.8	1000
6	4168	33.2	1000
6	4220	33.6	1000
6	4266	34	1000
6	4314	34.4	1000
6	4364	34.8	1000
6	4415	35.2	1000
6	4470	35.6	1000
6	4520	36	1000
6	4568	36.4	1000
6	4623	36.8	1000
6	4663	37.2	1000
6	4713	37.6	1000
6	4764	38	1000
6	4809	38.4	1000
6	4865	38.8	1000
6	4913	39.2	1000
6	4957	39.6	1000
6	5011	40	1000
6	5048	40.4	1000
6	5094	40.8	1000
6	5136	41.2	1000
6	5190	41.6	1000
6	5250	42	1000
6	5294	42.4	1000
6	5344	42.8	1000
6	5399	43.2	1000
6	5455	43.6	1000
6	5495	44	1000
6	5542	44.4	1000
6	5593	44.8	1000
6	5645	45.2	1000
6	5689	45.6	1000
6	5738	46	1000
6	5788	46.4	1000
6	5838	46.8	1000
6	5887	47.2	1000
6	5946	47.6	1000
6	5989	48	1000
6	6040	48.4	1000
6	6093	48.8	1000
6	6151	49.2	1000
6	6209	49.6	1000
6	6259	50	1000
6	6310	50.4	1000
6	6358	50.8	1000
6	6398	51.2	1000
6	6456	51.6	1000
6	6501	52	1000
6	6551	52.4	1000
6	6604	52.8	1000
6	6658	53.2	1000
6	6713	53.6	1000
6	6772	54	1000
6	6826	54.4	1000
6	6875	54.8	1000
6	6922	55.2	1000
6	6976	55.6	1000
6	7027	56	1000
6	7087	56.4	1000
6	7146	56.8	1000
6	7188	57.2	1000
6	7248	57.6	1000
6	7300	58	1000
6	7352	58.4	1000
6	7397	58.8	1000
6	7448	59.2	1000
6	7508	59.6	1000
6	7559	60	1000
6	7615	60.4	1000
6	7660	60.8	1000
6	7709	61.2	1000
6	7754	61.6	1000
6	7805	62	1000
6	7852	62.4	1000
6	7910	62.8	1000
6	7959	63.2	1000
6	8018	63.6	1000
6	8075	64	1000
6	8128	64.4	1000
6	8183	64.8	1000
6	8233	65.2	1000
6	8281	65.6	1000
6	8333	66	1000
6	8374	66.4	1000
6	8430	66.8	1000
6	8469	67.2	1000
6	8513	67.6	1000
6	8567	68	1000
6	8618	68.4	1000
6	8672	68.8	1000
6	8728	69.2	1000
6	8786	69.6	1000
6	8835	70	1000
6	8890	70.4	1000
6	8938	70.8	1000
6	8996	71.2	1000
6	9048	71.6	1000
6	9096	72	1000
6	9156	72.4	1000
6	9203	72.8	1000
6	9262	73.2	1000
6	9307	73.6	1000
6	9351	74	1000
6	9407	74.4	1000
6	9445	74.8	1000
6	9493	75.2	1000
6	9542	75.6	1000
6	9597	76	1000
6	9654	76.4	1000
6	9713	76.8	1000
6	9769	77.2	1000
6	9821	77.6	1000
6	9868	78	1000
6	9919	78.4	1000
6	9966	78.8	1000
6	10013	79.2	1000
6	10065	79.6	1000
6	10121	80	1000
6	10171	80.4	1000
6	10222	80.8	1000
6	10271	81.2	1000
6	10321	81.6	1000
6	10373	82	1000
6	10417	82.4	1000
6	10465	82.8	1000
6	10505	83.2	1000
6	10553	83.6	1000
6	10599	84	1000
6	10652	84.4	1000
6	10709	84.8	1000
6	10755	85.2	1000
6	10811	85.6	1000
6	10862	86	1000
6	10902	86.4	1000
6	10952	86.8	1000
6	11004	87.2	1000
6	11046	87.6	1000
6	11084	88	1000
6	11128	88.4	1000
6	11172	88.8	1000
6	11218	89.2	1000
6	11271	89.6	1000
6	11327	90	1000
6	11375	90.4	1000
6	11423	90.8	1000
6	11483	91.2	1000
6	11534	91.6	1000
6	11582	92	1000
6	11635	92.4	1000
6	11685	92.8	1000
6	11731	93.2	1000
6	11788	93.6	1000
6	11849	94	1000
6	11904	94.4	1000
6	11950	94.8	1000
6	12005	95.2	1000
6	12043	95.6	1000
6	12090	96	1000
6	12137	96.4	1000
6	12193	96.8	1000
6	12246	97.2	1000
6	12301	97.6	1000
6	12361	98	1000
6	12412	98.4	1000
6	12464	98.8	1000
6	12522	99.2	1000
6	12568	99.6	1000
7	8	0.4	1000
7	60	0.8	1000
7	102	1.2	1000
7	162	1.6	1000
7	203	2	1000
7	248	2.4	1000
7	305	2.8	1000
7	357	3.2	1000
7	411	3.6	1000
7	461	4	1000
7	513	4.4	1000
7	562	4.8	1000
7	605	5.2	1000
7	656	5.6	1000
7	700	6	1000
7	758	6.4	1000
7	817	6.8	1000
7	874	7.2	1000
7	926	7.6	1000
7	974	8	1000
7	1017	8.4	1000
7	1077	8.8	1000
7	1134	9.2	1000
7	1175	9.6	1000
7	1226	10	1000
7	1272	10.4	1000
7	1321	10.8	1000
7	1378	11.2	1000
7	1428	11.6	1000
7	1488	12	1000
7	1552	12.4	1000
7	1602	12.8	1000
7	1653	13.2	1000
7	1701	13.6	1000
7	1751	14	1000
7	1801	14.4	1000
7	1849	14.8	1000
7	1895	15.2	1000
7	1950	15.6	1000
7	2004	16	1000
7	2053	16.4	1000
7	2104	16.8	1000
7	2158	17.2	1000
7	2210	17.6	1000
7	2258	18	1000
7	2303	18.4	1000
7	2355	18.8	1000
7	2405	19.2	1000
7	2452	19.6	1000
7	2512	20	1000
7	2564	20.4	1000
7	2612	20.8	1000
7	2658	21.2	1000
7	2704	21.6	1000
7	2752	22	1000
7	2805	22.4	1000
7	2850	22.8	1000
7	2903	23.2	1000
7	2951	23.6	1000
7	3004	24	1000
7	3042	24.4	1000
7	3096	24.8	1000
7	3138	25.2	1000
7	3194	25.6	1000
7	3248	26	1000
7	3300	26.4	1000
7	3359	26.8	1000
7	3413	27.2	1000
7	3470	27.6	1000
7	3520	28	1000
7	3568	28.4	1000
7	3619	28.8	1000
7	3668	29.2	1000
7	3715	29.6	1000
7	3769	30	1000
7	3818	30.4	1000
7	3864	30.8	1000
7	3923	31.2	1000
7	3967	31.6	1000
7	4020	32	1000
7	4074	32.4	1000
7	4121	32.8	1000
7	4169	33.2	1000
7	4221	33.6	1000
7	4267	34	1000
7	4315	34.4	1000
7	4365	34.8	1000
7	4416	35.2	1000
7	4471	35.6	1000
7	4521	36	1000
7	4569	36.4	1000
7	4624	36.8	1000
7	4664	37.2	1000
7	4714	37.6	1000
7	4765	38	1000
7	4810	38.4	1000
7	4866	38.8	1000
7	4914	39.2	1000
7	4958	39.6	1000
7	5012	40	1000
7	5049	40.4	1000
7	5095	40.8	1000
7	5137	41.2	1000
7	5191	41.6	1000
7	5251	42	1000
7	5295	42.4	1000
7	5345	42.8	1000
7	5400	43.2	1000
7	5456	43.6	1000
7	5496	44	1000
7	5543	44.4	1000
7	5594	44.8	1000
7	5646	45.2	1000
7	5690	45.6	1000
7	5739	46	1000
7	5789	46.4	1000
7	5839	46.8	1000
7	5888	47.2	1000
7	5947	47.6	1000
7	5990	48	1000
7	6041	48.4	1000
7	6094	48.8	1000
7	6152	49.2	1000
7	6210	49.6	1000
7	6260	50	1000
7	6311	50.4	1000
7	6359	50.8	1000
7	6399	51.2	1000
7	6457	51.6	1000
7	6502	52	1000
7	6552	52.4	1000
7	6605	52.8	1000
7	6659	53.2	1000
7	6714	53.6	1000
7	6773	54	1000
7	6827	54.4	1000
7	6876	54.8	1000
7	6923	55.2	1000
7	6977	55.6	1000
7	7028	56	1000
7	7088	56.4	1000
7	7147	56.8	1000
7	7189	57.2	1000
7	7249	57.6	1000
7	7301	58	1000
7	7353	58.4	1000
7	7398	58.8	1000
7	7449	59.2	1000
7	7509	59.6	1000
7	7560	60	1000
7	7616	60.4	1000
7	7661	60.8	1000
7	7710	61.2	1000
7	7755	61.6	1000
7	7806	62	1000
7	7853	62.4	1000
7	7911	62.8	1000
7	7960	63.2	1000
7	8019	63.6	1000
7	8076	64	1000
7	8129	64.4	1000
7	8184	64.8	1000
7	8234	65.2	1000
7	8282	65.6	1000
7	8334	66	1000
7	8375	66.4	1000
7	8431	66.8	1000
7	8470	67.2	1000
7	8514	67.6	1000
7	8568	68	1000
7	8619	68.4	1000
7	8673	68.8	1000
7	8729	69.2	1000
7	8787	69.6	1000
7	8836	70	1000
7	8891	70.4	1000
7	8939	70.8	1000
7	8997	71.2	1000
7	9049	71.6	1000
7	9097	72	1000
7	9157	72.4	1000
7	9204	72.8	1000
7	9263	73.2	1000
7	9308	73.6	1000
7	9352	74	1000
7	9408	74.4	1000
7	9446	74.8	1000
7	9494	75.2	1000
7	9543	75.6	1000
7	9598	76	1000
7	9655	76.4	1000
7	9714	76.8	1000
7	9770	77.2	1000
7	9822	77.6	1000
7	9869	78	1000
7	9920	78.4	1000
7	9967	78.8	1000
7	10014	79.2	1000
7	10066	79.6	1000
7	10122	80	1000
7	10172	80.4	1000
7	10223	80.8	1000
7	10272	81.2	1000
7	10322	81.6	1000
7	10374	82	1000
7	10418	82.4	1000
7	10466	82.8	1000
7	10506	83.2	1000
7	10554	83.6	1000
7	10600	84	1000
7	10653	84.4	1000
7	10710	84.8	1000
7	10756	85.2	1000
7	10812	85.6	1000
7	10863	86	1000
7	10903	86.4	1000
7	10953	86.8	1000
7	11005	87.2	1000
7	11047	87.6	1000
7	11085	88	1000
7	11129	88.4	1000
7	11173	88.8	1000
7	11219	89.2	1000
7	11272	89.6	1000
7	11328	90	1000
7	11376	90.4	1000
7	11424	90.8	1000
7	11484	91.2	1000
7	11535	91.6	1000
7	11583	92	1000
7	11636	92.4	1000
7	11686	92.8	1000
7	11732	93.2	1000
7	11789	93.6	1000
7	11850	94	1000
7	11905	94.4	1000
7	11951	94.8	1000
7	12006	95.2	1000
7	12044	95.6	1000
7	12091	96	1000
7	12138	96.4	1000
7	12194	96.8	1000
7	12247	97.2	1000
7	12302	97.6	1000
7	12362	98	1000
7	12413	98.4	1000
7	12465	98.8	1000
7	12523	99.2	1000
7	12569	99.6	1000
8	10	0.4	1008
8	61	0.8	1008
8	103	1.2	1008
8	163	1.6	1008
8	204	2	1008
8	255	2.4	1008
8	309	2.8	1008
8	361	3.2	1008
8	414	3.6	1008
8	463	4	1008
8	516	4.4	1008
8	563	4.8	1008
8	607	5.2	1008
8	658	5.6	1008
8	702	6	1008
8	763	6.4	1008
8	819	6.8	1008
8	878	7.2	1008
8	928	7.6	1008
8	976	8	1008
8	1019	8.4	1008
8	1080	8.8	1008
8	1136	9.2	1008
8	1179	9.6	1008
8	1228	10	1008
8	1274	10.4	1008
8	1324	10.8	1008
8	1381	11.2	1008
8	1429	11.6	1008
8	1491	12	1008
8	1554	12.4	1008
8	1607	12.8	1008
8	1657	13.2	1008
8	1704	13.6	1008
8	1754	14	1008
8	1803	14.4	1008
8	1850	14.8	1008
8	1898	15.2	1008
8	1951	15.6	1008
8	2007	16	1008
8	2058	16.4	1008
8	2107	16.8	1008
8	2162	17.2	1008
8	2212	17.6	1008
8	2260	18	1008
8	2305	18.4	1008
8	2357	18.8	1008
8	2407	19.2	1008
8	2457	19.6	1008
8	2517	20	1008
8	2567	20.4	1008
8	2616	20.8	1008
8	2660	21.2	1008
8	2706	21.6	1008
8	2754	22	1008
8	2807	22.4	1008
8	2853	22.8	1008
8	2909	23.2	1008
8	2954	23.6	1008
8	3006	24	1008
8	3044	24.4	1008
8	3099	24.8	1008
8	3139	25.2	1008
8	3197	25.6	1008
8	3250	26	1008
8	3306	26.4	1008
8	3361	26.8	1008
8	3417	27.2	1008
8	3473	27.6	1008
8	3523	28	1008
8	3571	28.4	1008
8	3621	28.8	1008
8	3670	29.2	1008
8	3718	29.6	1008
8	3772	30	1008
8	3820	30.4	1008
8	3868	30.8	1008
8	3925	31.2	1008
8	3969	31.6	1008
8	4023	32	1008
8	4077	32.4	1008
8	4124	32.8	1008
8	4173	33.2	1008
8	4222	33.6	1008
8	4271	34	1008
8	4318	34.4	1008
8	4367	34.8	1008
8	4418	35.2	1008
8	4475	35.6	1008
8	4525	36	1008
8	4572	36.4	1008
8	4625	36.8	1008
8	4666	37.2	1008
8	4719	37.6	1008
8	4768	38	1008
8	4813	38.4	1008
8	4868	38.8	1008
8	4917	39.2	1008
8	4962	39.6	1008
8	5013	40	1008
8	5051	40.4	1008
8	5097	40.8	1008
8	5140	41.2	1008
8	5194	41.6	1008
8	5252	42	1008
8	5299	42.4	1008
8	5349	42.8	1008
8	5402	43.2	1008
8	5458	43.6	1008
8	5499	44	1008
8	5546	44.4	1008
8	5596	44.8	1008
8	5647	45.2	1008
8	5692	45.6	1008
8	5744	46	1008
8	5791	46.4	1008
8	5840	46.8	1008
8	5892	47.2	1008
8	5951	47.6	1008
8	5991	48	1008
8	6043	48.4	1008
8	6096	48.8	1008
8	6156	49.2	1008
8	6212	49.6	1008
8	6264	50	1008
8	6314	50.4	1008
8	6362	50.8	1008
8	6402	51.2	1008
8	6459	51.6	1008
8	6504	52	1008
8	6556	52.4	1008
8	6606	52.8	1008
8	6661	53.2	1008
8	6717	53.6	1008
8	6776	54	1008
8	6830	54.4	1008
8	6880	54.8	1008
8	6925	55.2	1008
8	6978	55.6	1008
8	7031	56	1008
8	7093	56.4	1008
8	7148	56.8	1008
8	7193	57.2	1008
8	7253	57.6	1008
8	7303	58	1008
8	7355	58.4	1008
8	7400	58.8	1008
8	7452	59.2	1008
8	7511	59.6	1008
8	7563	60	1008
8	7619	60.4	1008
8	7664	60.8	1008
8	7713	61.2	1008
8	7756	61.6	1008
8	7810	62	1008
8	7855	62.4	1008
8	7914	62.8	1008
8	7963	63.2	1008
8	8022	63.6	1008
8	8079	64	1008
8	8132	64.4	1008
8	8188	64.8	1008
8	8236	65.2	1008
8	8285	65.6	1008
8	8338	66	1008
8	8378	66.4	1008
8	8434	66.8	1008
8	8471	67.2	1008
8	8519	67.6	1008
8	8569	68	1008
8	8620	68.4	1008
8	8674	68.8	1008
8	8733	69.2	1008
8	8790	69.6	1008
8	8840	70	1008
8	8894	70.4	1008
8	8942	70.8	1008
8	9000	71.2	1008
8	9050	71.6	1008
8	9099	72	1008
8	9160	72.4	1008
8	9208	72.8	1008
8	9266	73.2	1008
8	9311	73.6	1008
8	9357	74	1008
8	9410	74.4	1008
8	9448	74.8	1008
8	9496	75.2	1008
8	9545	75.6	1008
8	9600	76	1008
8	9657	76.4	1008
8	9718	76.8	1008
8	9774	77.2	1008
8	9826	77.6	1008
8	9872	78	1008
8	9923	78.4	1008
8	9968	78.8	1008
8	10015	79.2	1008
8	10067	79.6	1008
8	10124	80	1008
8	10175	80.4	1008
8	10229	80.8	1008
8	10275	81.2	1008
8	10325	81.6	1008
8	10377	82	1008
8	10421	82.4	1008
8	10468	82.8	1008
8	10507	83.2	1008
8	10556	83.6	1008
8	10603	84	1008
8	10657	84.4	1008
8	10712	84.8	1008
8	10759	85.2	1008
8	10816	85.6	1008
8	10864	86	1008
8	10906	86.4	1008
8	10956	86.8	1008
8	11006	87.2	1008
8	11049	87.6	1008
8	11090	88	1008
8	11133	88.4	1008
8	11174	88.8	1008
8	11221	89.2	1008
8	11274	89.6	1008
8	11330	90	1008
8	11378	90.4	1008
8	11428	90.8	1008
8	11487	91.2	1008
8	11538	91.6	1008
8	11585	92	1008
8	11639	92.4	1008
8	11687	92.8	1008
8	11734	93.2	1008
8	11792	93.6	1008
8	11853	94	1008
8	11909	94.4	1008
8	11955	94.8	1008
8	12008	95.2	1008
8	12046	95.6	1008
8	12094	96	1008
8	12139	96.4	1008
8	12197	96.8	1008
8	12248	97.2	1008
8	12306	97.6	1008
8	12366	98	1008
8	12416	98.4	1008
8	12469	98.8	1008
8	12525	99.2	1008
8	12572	99.6	1008
9	12	0.4	1008
9	62	0.8	1008
9	104	1.2	1008
9	164	1.6	1008
9	205	2	1008
9	256	2.4	1008
9	310	2.8	1008
9	362	3.2	1008
9	415	3.6	1008
9	464	4	1008
9	517	4.4	1008
9	564	4.8	1008
9	608	5.2	1008
9	659	5.6	1008
9	703	6	1008
9	764	6.4	1008
9	820	6.8	1008
9	879	7.2	1008
9	929	7.6	1008
9	977	8	1008
9	1020	8.4	1008
9	1081	8.8	1008
9	1137	9.2	1008
9	1180	9.6	1008
9	1229	10	1008
9	1275	10.4	1008
9	1325	10.8	1008
9	1382	11.2	1008
9	1430	11.6	1008
9	1492	12	1008
9	1555	12.4	1008
9	1608	12.8	1008
9	1658	13.2	1008
9	1705	13.6	1008
9	1755	14	1008
9	1804	14.4	1008
9	1851	14.8	1008
9	1899	15.2	1008
9	1952	15.6	1008
9	2008	16	1008
9	2059	16.4	1008
9	2108	16.8	1008
9	2163	17.2	1008
9	2213	17.6	1008
9	2261	18	1008
9	2306	18.4	1008
9	2358	18.8	1008
9	2408	19.2	1008
9	2458	19.6	1008
9	2518	20	1008
9	2568	20.4	1008
9	2617	20.8	1008
9	2661	21.2	1008
9	2707	21.6	1008
9	2755	22	1008
9	2808	22.4	1008
9	2854	22.8	1008
9	2910	23.2	1008
9	2955	23.6	1008
9	3007	24	1008
9	3045	24.4	1008
9	3100	24.8	1008
9	3140	25.2	1008
9	3198	25.6	1008
9	3251	26	1008
9	3307	26.4	1008
9	3362	26.8	1008
9	3418	27.2	1008
9	3474	27.6	1008
9	3524	28	1008
9	3572	28.4	1008
9	3622	28.8	1008
9	3671	29.2	1008
9	3719	29.6	1008
9	3773	30	1008
9	3821	30.4	1008
9	3869	30.8	1008
9	3926	31.2	1008
9	3970	31.6	1008
9	4024	32	1008
9	4078	32.4	1008
9	4125	32.8	1008
9	4174	33.2	1008
9	4223	33.6	1008
9	4272	34	1008
9	4319	34.4	1008
9	4368	34.8	1008
9	4419	35.2	1008
9	4476	35.6	1008
9	4526	36	1008
9	4573	36.4	1008
9	4626	36.8	1008
9	4667	37.2	1008
9	4720	37.6	1008
9	4769	38	1008
9	4814	38.4	1008
9	4869	38.8	1008
9	4918	39.2	1008
9	4963	39.6	1008
9	5014	40	1008
9	5052	40.4	1008
9	5098	40.8	1008
9	5141	41.2	1008
9	5195	41.6	1008
9	5253	42	1008
9	5300	42.4	1008
9	5350	42.8	1008
9	5403	43.2	1008
9	5459	43.6	1008
9	5500	44	1008
9	5547	44.4	1008
9	5597	44.8	1008
9	5648	45.2	1008
9	5693	45.6	1008
9	5745	46	1008
9	5792	46.4	1008
9	5841	46.8	1008
9	5893	47.2	1008
9	5952	47.6	1008
9	5992	48	1008
9	6044	48.4	1008
9	6097	48.8	1008
9	6157	49.2	1008
9	6213	49.6	1008
9	6265	50	1008
9	6315	50.4	1008
9	6363	50.8	1008
9	6403	51.2	1008
9	6460	51.6	1008
9	6505	52	1008
9	6557	52.4	1008
9	6607	52.8	1008
9	6662	53.2	1008
9	6718	53.6	1008
9	6777	54	1008
9	6831	54.4	1008
9	6881	54.8	1008
9	6926	55.2	1008
9	6979	55.6	1008
9	7032	56	1008
9	7094	56.4	1008
9	7149	56.8	1008
9	7194	57.2	1008
9	7254	57.6	1008
9	7304	58	1008
9	7356	58.4	1008
9	7401	58.8	1008
9	7453	59.2	1008
9	7512	59.6	1008
9	7564	60	1008
9	7620	60.4	1008
9	7665	60.8	1008
9	7714	61.2	1008
9	7757	61.6	1008
9	7811	62	1008
9	7856	62.4	1008
9	7915	62.8	1008
9	7964	63.2	1008
9	8023	63.6	1008
9	8080	64	1008
9	8133	64.4	1008
9	8189	64.8	1008
9	8237	65.2	1008
9	8286	65.6	1008
9	8339	66	1008
9	8379	66.4	1008
9	8435	66.8	1008
9	8472	67.2	1008
9	8520	67.6	1008
9	8570	68	1008
9	8621	68.4	1008
9	8675	68.8	1008
9	8734	69.2	1008
9	8791	69.6	1008
9	8841	70	1008
9	8895	70.4	1008
9	8943	70.8	1008
9	9001	71.2	1008
9	9051	71.6	1008
9	9100	72	1008
9	9161	72.4	1008
9	9209	72.8	1008
9	9267	73.2	1008
9	9312	73.6	1008
9	9358	74	1008
9	9411	74.4	1008
9	9449	74.8	1008
9	9497	75.2	1008
9	9546	75.6	1008
9	9601	76	1008
9	9658	76.4	1008
9	9719	76.8	1008
9	9775	77.2	1008
9	9827	77.6	1008
9	9873	78	1008
9	9924	78.4	1008
9	9969	78.8	1008
9	10016	79.2	1008
9	10068	79.6	1008
9	10125	80	1008
9	10176	80.4	1008
9	10230	80.8	1008
9	10276	81.2	1008
9	10326	81.6	1008
9	10378	82	1008
9	10422	82.4	1008
9	10469	82.8	1008
9	10508	83.2	1008
9	10557	83.6	1008
9	10604	84	1008
9	10658	84.4	1008
9	10713	84.8	1008
9	10760	85.2	1008
9	10817	85.6	1008
9	10865	86	1008
9	10907	86.4	1008
9	10957	86.8	1008
9	11007	87.2	1008
9	11050	87.6	1008
9	11091	88	1008
9	11134	88.4	1008
9	11175	88.8	1008
9	11222	89.2	1008
9	11275	89.6	1008
9	11331	90	1008
9	11379	90.4	1008
9	11429	90.8	1008
9	11488	91.2	1008
9	11539	91.6	1008
9	11586	92	1008
9	11640	92.4	1008
9	11688	92.8	1008
9	11735	93.2	1008
9	11793	93.6	1008
9	11854	94	1008
9	11910	94.4	1008
9	11956	94.8	1008
9	12009	95.2	1008
9	12047	95.6	1008
9	12095	96	1008
9	12140	96.4	1008
9	12198	96.8	1008
9	12249	97.2	1008
9	12307	97.6	1008
9	12367	98	1008
9	12417	98.4	1008
9	12470	98.8	1008
9	12526	99.2	1008
9	12573	99.6	1008
10	14	0.4	1008
10	63	0.8	1008
10	105	1.2	1008
10	165	1.6	1008
10	206	2	1008
10	257	2.4	1008
10	311	2.8	1008
10	363	3.2	1008
10	416	3.6	1008
10	465	4	1008
10	518	4.4	1008
10	565	4.8	1008
10	609	5.2	1008
10	660	5.6	1008
10	704	6	1008
10	765	6.4	1008
10	821	6.8	1008
10	880	7.2	1008
10	930	7.6	1008
10	978	8	1008
10	1021	8.4	1008
10	1082	8.8	1008
10	1138	9.2	1008
10	1181	9.6	1008
10	1230	10	1008
10	1276	10.4	1008
10	1326	10.8	1008
10	1383	11.2	1008
10	1431	11.6	1008
10	1493	12	1008
10	1556	12.4	1008
10	1609	12.8	1008
10	1659	13.2	1008
10	1706	13.6	1008
10	1756	14	1008
10	1805	14.4	1008
10	1852	14.8	1008
10	1900	15.2	1008
10	1953	15.6	1008
10	2009	16	1008
10	2060	16.4	1008
10	2109	16.8	1008
10	2164	17.2	1008
10	2214	17.6	1008
10	2262	18	1008
10	2307	18.4	1008
10	2359	18.8	1008
10	2409	19.2	1008
10	2459	19.6	1008
10	2519	20	1008
10	2569	20.4	1008
10	2618	20.8	1008
10	2662	21.2	1008
10	2708	21.6	1008
10	2756	22	1008
10	2809	22.4	1008
10	2855	22.8	1008
10	2911	23.2	1008
10	2956	23.6	1008
10	3008	24	1008
10	3046	24.4	1008
10	3101	24.8	1008
10	3141	25.2	1008
10	3199	25.6	1008
10	3252	26	1008
10	3308	26.4	1008
10	3363	26.8	1008
10	3419	27.2	1008
10	3475	27.6	1008
10	3525	28	1008
10	3573	28.4	1008
10	3623	28.8	1008
10	3672	29.2	1008
10	3720	29.6	1008
10	3774	30	1008
10	3822	30.4	1008
10	3870	30.8	1008
10	3927	31.2	1008
10	3971	31.6	1008
10	4025	32	1008
10	4079	32.4	1008
10	4126	32.8	1008
10	4175	33.2	1008
10	4224	33.6	1008
10	4273	34	1008
10	4320	34.4	1008
10	4369	34.8	1008
10	4420	35.2	1008
10	4477	35.6	1008
10	4527	36	1008
10	4574	36.4	1008
10	4627	36.8	1008
10	4668	37.2	1008
10	4721	37.6	1008
10	4770	38	1008
10	4815	38.4	1008
10	4870	38.8	1008
10	4919	39.2	1008
10	4964	39.6	1008
10	5015	40	1008
10	5053	40.4	1008
10	5099	40.8	1008
10	5142	41.2	1008
10	5196	41.6	1008
10	5254	42	1008
10	5301	42.4	1008
10	5351	42.8	1008
10	5404	43.2	1008
10	5460	43.6	1008
10	5501	44	1008
10	5548	44.4	1008
10	5598	44.8	1008
10	5649	45.2	1008
10	5694	45.6	1008
10	5746	46	1008
10	5793	46.4	1008
10	5842	46.8	1008
10	5894	47.2	1008
10	5953	47.6	1008
10	5993	48	1008
10	6045	48.4	1008
10	6098	48.8	1008
10	6158	49.2	1008
10	6214	49.6	1008
10	6266	50	1008
10	6316	50.4	1008
10	6364	50.8	1008
10	6404	51.2	1008
10	6461	51.6	1008
10	6506	52	1008
10	6558	52.4	1008
10	6608	52.8	1008
10	6663	53.2	1008
10	6719	53.6	1008
10	6778	54	1008
10	6832	54.4	1008
10	6882	54.8	1008
10	6927	55.2	1008
10	6980	55.6	1008
10	7033	56	1008
10	7095	56.4	1008
10	7150	56.8	1008
10	7195	57.2	1008
10	7255	57.6	1008
10	7305	58	1008
10	7357	58.4	1008
10	7402	58.8	1008
10	7454	59.2	1008
10	7513	59.6	1008
10	7565	60	1008
10	7621	60.4	1008
10	7666	60.8	1008
10	7715	61.2	1008
10	7758	61.6	1008
10	7812	62	1008
10	7857	62.4	1008
10	7916	62.8	1008
10	7965	63.2	1008
10	8024	63.6	1008
10	8081	64	1008
10	8134	64.4	1008
10	8190	64.8	1008
10	8238	65.2	1008
10	8287	65.6	1008
10	8340	66	1008
10	8380	66.4	1008
10	8436	66.8	1008
10	8473	67.2	1008
10	8521	67.6	1008
10	8571	68	1008
10	8622	68.4	1008
10	8676	68.8	1008
10	8735	69.2	1008
10	8792	69.6	1008
10	8842	70	1008
10	8896	70.4	1008
10	8944	70.8	1008
10	9002	71.2	1008
10	9052	71.6	1008
10	9101	72	1008
10	9162	72.4	1008
10	9210	72.8	1008
10	9268	73.2	1008
10	9313	73.6	1008
10	9359	74	1008
10	9412	74.4	1008
10	9450	74.8	1008
10	9498	75.2	1008
10	9547	75.6	1008
10	9602	76	1008
10	9659	76.4	1008
10	9720	76.8	1008
10	9776	77.2	1008
10	9828	77.6	1008
10	9874	78	1008
10	9925	78.4	1008
10	9970	78.8	1008
10	10017	79.2	1008
10	10069	79.6	1008
10	10126	80	1008
10	10177	80.4	1008
10	10231	80.8	1008
10	10277	81.2	1008
10	10327	81.6	1008
10	10379	82	1008
10	10423	82.4	1008
10	10470	82.8	1008
10	10509	83.2	1008
10	10558	83.6	1008
10	10605	84	1008
10	10659	84.4	1008
10	10714	84.8	1008
10	10761	85.2	1008
10	10818	85.6	1008
10	10866	86	1008
10	10908	86.4	1008
10	10958	86.8	1008
10	11008	87.2	1008
10	11051	87.6	1008
10	11092	88	1008
10	11135	88.4	1008
10	11176	88.8	1008
10	11223	89.2	1008
10	11276	89.6	1008
10	11332	90	1008
10	11380	90.4	1008
10	11430	90.8	1008
10	11489	91.2	1008
10	11540	91.6	1008
10	11587	92	1008
10	11641	92.4	1008
10	11689	92.8	1008
10	11736	93.2	1008
10	11794	93.6	1008
10	11855	94	1008
10	11911	94.4	1008
10	11957	94.8	1008
10	12010	95.2	1008
10	12048	95.6	1008
10	12096	96	1008
10	12141	96.4	1008
10	12199	96.8	1008
10	12250	97.2	1008
10	12308	97.6	1008
10	12368	98	1008
10	12418	98.4	1008
10	12471	98.8	1008
10	12527	99.2	1008
10	12574	99.6	1008
11	16	0.4	1008
11	64	0.8	1008
11	106	1.2	1008
11	166	1.6	1008
11	207	2	1008
11	258	2.4	1008
11	312	2.8	1008
11	364	3.2	1008
11	417	3.6	1008
11	466	4	1008
11	519	4.4	1008
11	566	4.8	1008
11	610	5.2	1008
11	661	5.6	1008
11	705	6	1008
11	766	6.4	1008
11	822	6.8	1008
11	881	7.2	1008
11	931	7.6	1008
11	979	8	1008
11	1022	8.4	1008
11	1083	8.8	1008
11	1139	9.2	1008
11	1182	9.6	1008
11	1231	10	1008
11	1277	10.4	1008
11	1327	10.8	1008
11	1384	11.2	1008
11	1432	11.6	1008
11	1494	12	1008
11	1557	12.4	1008
11	1610	12.8	1008
11	1660	13.2	1008
11	1707	13.6	1008
11	1757	14	1008
11	1806	14.4	1008
11	1853	14.8	1008
11	1901	15.2	1008
11	1954	15.6	1008
11	2010	16	1008
11	2061	16.4	1008
11	2110	16.8	1008
11	2165	17.2	1008
11	2215	17.6	1008
11	2263	18	1008
11	2308	18.4	1008
11	2360	18.8	1008
11	2410	19.2	1008
11	2460	19.6	1008
11	2520	20	1008
11	2570	20.4	1008
11	2619	20.8	1008
11	2663	21.2	1008
11	2709	21.6	1008
11	2757	22	1008
11	2810	22.4	1008
11	2856	22.8	1008
11	2912	23.2	1008
11	2957	23.6	1008
11	3009	24	1008
11	3047	24.4	1008
11	3102	24.8	1008
11	3142	25.2	1008
11	3200	25.6	1008
11	3253	26	1008
11	3309	26.4	1008
11	3364	26.8	1008
11	3420	27.2	1008
11	3476	27.6	1008
11	3526	28	1008
11	3574	28.4	1008
11	3624	28.8	1008
11	3673	29.2	1008
11	3721	29.6	1008
11	3775	30	1008
11	3823	30.4	1008
11	3871	30.8	1008
11	3928	31.2	1008
11	3972	31.6	1008
11	4026	32	1008
11	4080	32.4	1008
11	4127	32.8	1008
11	4176	33.2	1008
11	4225	33.6	1008
11	4274	34	1008
11	4321	34.4	1008
11	4370	34.8	1008
11	4421	35.2	1008
11	4478	35.6	1008
11	4528	36	1008
11	4575	36.4	1008
11	4628	36.8	1008
11	4669	37.2	1008
11	4722	37.6	1008
11	4771	38	1008
11	4816	38.4	1008
11	4871	38.8	1008
11	4920	39.2	1008
11	4965	39.6	1008
11	5016	40	1008
11	5054	40.4	1008
11	5100	40.8	1008
11	5143	41.2	1008
11	5197	41.6	1008
11	5255	42	1008
11	5302	42.4	1008
11	5352	42.8	1008
11	5405	43.2	1008
11	5461	43.6	1008
11	5502	44	1008
11	5549	44.4	1008
11	5599	44.8	1008
11	5650	45.2	1008
11	5695	45.6	1008
11	5747	46	1008
11	5794	46.4	1008
11	5843	46.8	1008
11	5895	47.2	1008
11	5954	47.6	1008
11	5994	48	1008
11	6046	48.4	1008
11	6099	48.8	1008
11	6159	49.2	1008
11	6215	49.6	1008
11	6267	50	1008
11	6317	50.4	1008
11	6365	50.8	1008
11	6405	51.2	1008
11	6462	51.6	1008
11	6507	52	1008
11	6559	52.4	1008
11	6609	52.8	1008
11	6664	53.2	1008
11	6720	53.6	1008
11	6779	54	1008
11	6833	54.4	1008
11	6883	54.8	1008
11	6928	55.2	1008
11	6981	55.6	1008
11	7034	56	1008
11	7096	56.4	1008
11	7151	56.8	1008
11	7196	57.2	1008
11	7256	57.6	1008
11	7306	58	1008
11	7358	58.4	1008
11	7403	58.8	1008
11	7455	59.2	1008
11	7514	59.6	1008
11	7566	60	1008
11	7622	60.4	1008
11	7667	60.8	1008
11	7716	61.2	1008
11	7759	61.6	1008
11	7813	62	1008
11	7858	62.4	1008
11	7917	62.8	1008
11	7966	63.2	1008
11	8025	63.6	1008
11	8082	64	1008
11	8135	64.4	1008
11	8191	64.8	1008
11	8239	65.2	1008
11	8288	65.6	1008
11	8341	66	1008
11	8381	66.4	1008
11	8437	66.8	1008
11	8474	67.2	1008
11	8522	67.6	1008
11	8572	68	1008
11	8623	68.4	1008
11	8677	68.8	1008
11	8736	69.2	1008
11	8793	69.6	1008
11	8843	70	1008
11	8897	70.4	1008
11	8945	70.8	1008
11	9003	71.2	1008
11	9053	71.6	1008
11	9102	72	1008
11	9163	72.4	1008
11	9211	72.8	1008
11	9269	73.2	1008
11	9314	73.6	1008
11	9360	74	1008
11	9413	74.4	1008
11	9451	74.8	1008
11	9499	75.2	1008
11	9548	75.6	1008
11	9603	76	1008
11	9660	76.4	1008
11	9721	76.8	1008
11	9777	77.2	1008
11	9829	77.6	1008
11	9875	78	1008
11	9926	78.4	1008
11	9971	78.8	1008
11	10018	79.2	1008
11	10070	79.6	1008
11	10127	80	1008
11	10178	80.4	1008
11	10232	80.8	1008
11	10278	81.2	1008
11	10328	81.6	1008
11	10380	82	1008
11	10424	82.4	1008
11	10471	82.8	1008
11	10510	83.2	1008
11	10559	83.6	1008
11	10606	84	1008
11	10660	84.4	1008
11	10715	84.8	1008
11	10762	85.2	1008
11	10819	85.6	1008
11	10867	86	1008
11	10909	86.4	1008
11	10959	86.8	1008
11	11009	87.2	1008
11	11052	87.6	1008
11	11093	88	1008
11	11136	88.4	1008
11	11177	88.8	1008
11	11224	89.2	1008
11	11277	89.6	1008
11	11333	90	1008
11	11381	90.4	1008
11	11431	90.8	1008
11	11490	91.2	1008
11	11541	91.6	1008
11	11588	92	1008
11	11642	92.4	1008
11	11690	92.8	1008
11	11737	93.2	1008
11	11795	93.6	1008
11	11856	94	1008
11	11912	94.4	1008
11	11958	94.8	1008
11	12011	95.2	1008
11	12049	95.6	1008
11	12097	96	1008
11	12142	96.4	1008
11	12200	96.8	1008
11	12251	97.2	1008
11	12309	97.6	1008
11	12369	98	1008
11	12419	98.4	1008
11	12472	98.8	1008
11	12528	99.2	1008
11	12575	99.6	1008
12	18	0.4	1008
12	65	0.8	1008
12	107	1.2	1008
12	167	1.6	1008
12	208	2	1008
12	259	2.4	1008
12	313	2.8	1008
12	365	3.2	1008
12	418	3.6	1008
12	467	4	1008
12	520	4.4	1008
12	567	4.8	1008
12	611	5.2	1008
12	662	5.6	1008
12	706	6	1008
12	767	6.4	1008
12	823	6.8	1008
12	882	7.2	1008
12	932	7.6	1008
12	980	8	1008
12	1023	8.4	1008
12	1084	8.8	1008
12	1140	9.2	1008
12	1183	9.6	1008
12	1232	10	1008
12	1278	10.4	1008
12	1328	10.8	1008
12	1385	11.2	1008
12	1433	11.6	1008
12	1495	12	1008
12	1558	12.4	1008
12	1611	12.8	1008
12	1661	13.2	1008
12	1708	13.6	1008
12	1758	14	1008
12	1807	14.4	1008
12	1854	14.8	1008
12	1902	15.2	1008
12	1955	15.6	1008
12	2011	16	1008
12	2062	16.4	1008
12	2111	16.8	1008
12	2166	17.2	1008
12	2216	17.6	1008
12	2264	18	1008
12	2309	18.4	1008
12	2361	18.8	1008
12	2411	19.2	1008
12	2461	19.6	1008
12	2521	20	1008
12	2571	20.4	1008
12	2620	20.8	1008
12	2664	21.2	1008
12	2710	21.6	1008
12	2758	22	1008
12	2811	22.4	1008
12	2857	22.8	1008
12	2913	23.2	1008
12	2958	23.6	1008
12	3010	24	1008
12	3048	24.4	1008
12	3103	24.8	1008
12	3143	25.2	1008
12	3201	25.6	1008
12	3254	26	1008
12	3310	26.4	1008
12	3365	26.8	1008
12	3421	27.2	1008
12	3477	27.6	1008
12	3527	28	1008
12	3575	28.4	1008
12	3625	28.8	1008
12	3674	29.2	1008
12	3722	29.6	1008
12	3776	30	1008
12	3824	30.4	1008
12	3872	30.8	1008
12	3929	31.2	1008
12	3973	31.6	1008
12	4027	32	1008
12	4081	32.4	1008
12	4128	32.8	1008
12	4177	33.2	1008
12	4226	33.6	1008
12	4275	34	1008
12	4322	34.4	1008
12	4371	34.8	1008
12	4422	35.2	1008
12	4479	35.6	1008
12	4529	36	1008
12	4576	36.4	1008
12	4629	36.8	1008
12	4670	37.2	1008
12	4723	37.6	1008
12	4772	38	1008
12	4817	38.4	1008
12	4872	38.8	1008
12	4921	39.2	1008
12	4966	39.6	1008
12	5017	40	1008
12	5055	40.4	1008
12	5101	40.8	1008
12	5144	41.2	1008
12	5198	41.6	1008
12	5256	42	1008
12	5303	42.4	1008
12	5353	42.8	1008
12	5406	43.2	1008
12	5462	43.6	1008
12	5503	44	1008
12	5550	44.4	1008
12	5600	44.8	1008
12	5651	45.2	1008
12	5696	45.6	1008
12	5748	46	1008
12	5795	46.4	1008
12	5844	46.8	1008
12	5896	47.2	1008
12	5955	47.6	1008
12	5995	48	1008
12	6047	48.4	1008
12	6100	48.8	1008
12	6160	49.2	1008
12	6216	49.6	1008
12	6268	50	1008
12	6318	50.4	1008
12	6366	50.8	1008
12	6406	51.2	1008
12	6463	51.6	1008
12	6508	52	1008
12	6560	52.4	1008
12	6610	52.8	1008
12	6665	53.2	1008
12	6721	53.6	1008
12	6780	54	1008
12	6834	54.4	1008
12	6884	54.8	1008
12	6929	55.2	1008
12	6982	55.6	1008
12	7035	56	1008
12	7097	56.4	1008
12	7152	56.8	1008
12	7197	57.2	1008
12	7257	57.6	1008
12	7307	58	1008
12	7359	58.4	1008
12	7404	58.8	1008
12	7456	59.2	1008
12	7515	59.6	1008
12	7567	60	1008
12	7623	60.4	1008
12	7668	60.8	1008
12	7717	61.2	1008
12	7760	61.6	1008
12	7814	62	1008
12	7859	62.4	1008
12	7918	62.8	1008
12	7967	63.2	1008
12	8026	63.6	1008
12	8083	64	1008
12	8136	64.4	1008
12	8192	64.8	1008
12	8240	65.2	1008
12	8289	65.6	1008
12	8342	66	1008
12	8382	66.4	1008
12	8438	66.8	1008
12	8475	67.2	1008
12	8523	67.6	1008
12	8573	68	1008
12	8624	68.4	1008
12	8678	68.8	1008
12	8737	69.2	1008
12	8794	69.6	1008
12	8844	70	1008
12	8898	70.4	1008
12	8946	70.8	1008
12	9004	71.2	1008
12	9054	71.6	1008
12	9103	72	1008
12	9164	72.4	1008
12	9212	72.8	1008
12	9270	73.2	1008
12	9315	73.6	1008
12	9361	74	1008
12	9414	74.4	1008
12	9452	74.8	1008
12	9500	75.2	1008
12	9549	75.6	1008
12	9604	76	1008
12	9661	76.4	1008
12	9722	76.8	1008
12	9778	77.2	1008
12	9830	77.6	1008
12	9876	78	1008
12	9927	78.4	1008
12	9972	78.8	1008
12	10019	79.2	1008
12	10071	79.6	1008
12	10128	80	1008
12	10179	80.4	1008
12	10233	80.8	1008
12	10279	81.2	1008
12	10329	81.6	1008
12	10381	82	1008
12	10425	82.4	1008
12	10472	82.8	1008
12	10511	83.2	1008
12	10560	83.6	1008
12	10607	84	1008
12	10661	84.4	1008
12	10716	84.8	1008
12	10763	85.2	1008
12	10820	85.6	1008
12	10868	86	1008
12	10910	86.4	1008
12	10960	86.8	1008
12	11010	87.2	1008
12	11053	87.6	1008
12	11094	88	1008
12	11137	88.4	1008
12	11178	88.8	1008
12	11225	89.2	1008
12	11278	89.6	1008
12	11334	90	1008
12	11382	90.4	1008
12	11432	90.8	1008
12	11491	91.2	1008
12	11542	91.6	1008
12	11589	92	1008
12	11643	92.4	1008
12	11691	92.8	1008
12	11738	93.2	1008
12	11796	93.6	1008
12	11857	94	1008
12	11913	94.4	1008
12	11959	94.8	1008
12	12012	95.2	1008
12	12050	95.6	1008
12	12098	96	1008
12	12143	96.4	1008
12	12201	96.8	1008
12	12252	97.2	1008
12	12310	97.6	1008
12	12370	98	1008
12	12420	98.4	1008
12	12473	98.8	1008
12	12529	99.2	1008
12	12576	99.6	1008
13	20	0.4	1008
13	66	0.8	1008
13	108	1.2	1008
13	168	1.6	1008
13	209	2	1008
13	260	2.4	1008
13	314	2.8	1008
13	366	3.2	1008
13	419	3.6	1008
13	468	4	1008
13	521	4.4	1008
13	568	4.8	1008
13	612	5.2	1008
13	663	5.6	1008
13	707	6	1008
13	768	6.4	1008
13	824	6.8	1008
13	883	7.2	1008
13	933	7.6	1008
13	981	8	1008
13	1024	8.4	1008
13	1085	8.8	1008
13	1141	9.2	1008
13	1184	9.6	1008
13	1233	10	1008
13	1279	10.4	1008
13	1329	10.8	1008
13	1386	11.2	1008
13	1434	11.6	1008
13	1496	12	1008
13	1559	12.4	1008
13	1612	12.8	1008
13	1662	13.2	1008
13	1709	13.6	1008
13	1759	14	1008
13	1808	14.4	1008
13	1855	14.8	1008
13	1903	15.2	1008
13	1956	15.6	1008
13	2012	16	1008
13	2063	16.4	1008
13	2112	16.8	1008
13	2167	17.2	1008
13	2217	17.6	1008
13	2265	18	1008
13	2310	18.4	1008
13	2362	18.8	1008
13	2412	19.2	1008
13	2462	19.6	1008
13	2522	20	1008
13	2572	20.4	1008
13	2621	20.8	1008
13	2665	21.2	1008
13	2711	21.6	1008
13	2759	22	1008
13	2812	22.4	1008
13	2858	22.8	1008
13	2914	23.2	1008
13	2959	23.6	1008
13	3011	24	1008
13	3049	24.4	1008
13	3104	24.8	1008
13	3144	25.2	1008
13	3202	25.6	1008
13	3255	26	1008
13	3311	26.4	1008
13	3366	26.8	1008
13	3422	27.2	1008
13	3478	27.6	1008
13	3528	28	1008
13	3576	28.4	1008
13	3626	28.8	1008
13	3675	29.2	1008
13	3723	29.6	1008
13	3777	30	1008
13	3825	30.4	1008
13	3873	30.8	1008
13	3930	31.2	1008
13	3974	31.6	1008
13	4028	32	1008
13	4082	32.4	1008
13	4129	32.8	1008
13	4178	33.2	1008
13	4227	33.6	1008
13	4276	34	1008
13	4323	34.4	1008
13	4372	34.8	1008
13	4423	35.2	1008
13	4480	35.6	1008
13	4530	36	1008
13	4577	36.4	1008
13	4630	36.8	1008
13	4671	37.2	1008
13	4724	37.6	1008
13	4773	38	1008
13	4818	38.4	1008
13	4873	38.8	1008
13	4922	39.2	1008
13	4967	39.6	1008
13	5018	40	1008
13	5056	40.4	1008
13	5102	40.8	1008
13	5145	41.2	1008
13	5199	41.6	1008
13	5257	42	1008
13	5304	42.4	1008
13	5354	42.8	1008
13	5407	43.2	1008
13	5463	43.6	1008
13	5504	44	1008
13	5551	44.4	1008
13	5601	44.8	1008
13	5652	45.2	1008
13	5697	45.6	1008
13	5749	46	1008
13	5796	46.4	1008
13	5845	46.8	1008
13	5897	47.2	1008
13	5956	47.6	1008
13	5996	48	1008
13	6048	48.4	1008
13	6101	48.8	1008
13	6161	49.2	1008
13	6217	49.6	1008
13	6269	50	1008
13	6319	50.4	1008
13	6367	50.8	1008
13	6407	51.2	1008
13	6464	51.6	1008
13	6509	52	1008
13	6561	52.4	1008
13	6611	52.8	1008
13	6666	53.2	1008
13	6722	53.6	1008
13	6781	54	1008
13	6835	54.4	1008
13	6885	54.8	1008
13	6930	55.2	1008
13	6983	55.6	1008
13	7036	56	1008
13	7098	56.4	1008
13	7153	56.8	1008
13	7198	57.2	1008
13	7258	57.6	1008
13	7308	58	1008
13	7360	58.4	1008
13	7405	58.8	1008
13	7457	59.2	1008
13	7516	59.6	1008
13	7568	60	1008
13	7624	60.4	1008
13	7669	60.8	1008
13	7718	61.2	1008
13	7761	61.6	1008
13	7815	62	1008
13	7860	62.4	1008
13	7919	62.8	1008
13	7968	63.2	1008
13	8027	63.6	1008
13	8084	64	1008
13	8137	64.4	1008
13	8193	64.8	1008
13	8241	65.2	1008
13	8290	65.6	1008
13	8343	66	1008
13	8383	66.4	1008
13	8439	66.8	1008
13	8476	67.2	1008
13	8524	67.6	1008
13	8574	68	1008
13	8625	68.4	1008
13	8679	68.8	1008
13	8738	69.2	1008
13	8795	69.6	1008
13	8845	70	1008
13	8899	70.4	1008
13	8947	70.8	1008
13	9005	71.2	1008
13	9055	71.6	1008
13	9104	72	1008
13	9165	72.4	1008
13	9213	72.8	1008
13	9271	73.2	1008
13	9316	73.6	1008
13	9362	74	1008
13	9415	74.4	1008
13	9453	74.8	1008
13	9501	75.2	1008
13	9550	75.6	1008
13	9605	76	1008
13	9662	76.4	1008
13	9723	76.8	1008
13	9779	77.2	1008
13	9831	77.6	1008
13	9877	78	1008
13	9928	78.4	1008
13	9973	78.8	1008
13	10020	79.2	1008
13	10072	79.6	1008
13	10129	80	1008
13	10180	80.4	1008
13	10234	80.8	1008
13	10280	81.2	1008
13	10330	81.6	1008
13	10382	82	1008
13	10426	82.4	1008
13	10473	82.8	1008
13	10512	83.2	1008
13	10561	83.6	1008
13	10608	84	1008
13	10662	84.4	1008
13	10717	84.8	1008
13	10764	85.2	1008
13	10821	85.6	1008
13	10869	86	1008
13	10911	86.4	1008
13	10961	86.8	1008
13	11011	87.2	1008
13	11054	87.6	1008
13	11095	88	1008
13	11138	88.4	1008
13	11179	88.8	1008
13	11226	89.2	1008
13	11279	89.6	1008
13	11335	90	1008
13	11383	90.4	1008
13	11433	90.8	1008
13	11492	91.2	1008
13	11543	91.6	1008
13	11590	92	1008
13	11644	92.4	1008
13	11692	92.8	1008
13	11739	93.2	1008
13	11797	93.6	1008
13	11858	94	1008
13	11914	94.4	1008
13	11960	94.8	1008
13	12013	95.2	1008
13	12051	95.6	1008
13	12099	96	1008
13	12144	96.4	1008
13	12202	96.8	1008
13	12253	97.2	1008
13	12311	97.6	1008
13	12371	98	1008
13	12421	98.4	1008
13	12474	98.8	1008
13	12530	99.2	1008
13	12577	99.6	1008
14	22	0.4	1008
14	67	0.8	1008
14	109	1.2	1008
14	169	1.6	1008
14	210	2	1008
14	261	2.4	1008
14	315	2.8	1008
14	367	3.2	1008
14	420	3.6	1008
14	469	4	1008
14	522	4.4	1008
14	569	4.8	1008
14	613	5.2	1008
14	664	5.6	1008
14	708	6	1008
14	769	6.4	1008
14	825	6.8	1008
14	884	7.2	1008
14	934	7.6	1008
14	982	8	1008
[...]
99	1003	8.2	1028
99	1417	11.4	1028
99	1417	11.4	1028
99	1417	11.4	1028
99	1840	14.6	1028
99	1840	14.6	1028
99	1840	14.6	1028
99	1840	14.6	1028
99	1840	14.6	1028
99	2245	17.8	1028
99	2245	17.8	1028
99	2245	17.8	1028
99	2245	17.8	1028
99	2643	21	1028
99	2643	21	1028
99	2643	21	1028
99	2643	21	1028
99	3029	24.2	1028
99	3029	24.2	1028
99	3029	24.2	1028
99	3029	24.2	1028
99	3450	27.4	1028
99	3450	27.4	1028
99	3450	27.4	1028
99	3849	30.6	1028
99	3849	30.6	1028
99	3849	30.6	1028
99	3849	30.6	1028
99	3849	30.6	1028
99	4300	34.2	1028
99	4300	34.2	1028
99	4300	34.2	1028
99	4300	34.2	1028
99	4695	37.4	1028
99	4695	37.4	1028
99	4695	37.4	1028
99	4695	37.4	1028
99	4695	37.4	1028
99	4695	37.4	1028
99	4695	37.4	1028
99	4695	37.4	1028
99	5078	40.6	1028
99	5078	40.6	1028
99	5078	40.6	1028
99	5078	40.6	1028
99	5078	40.6	1028
99	5078	40.6	1028
99	5078	40.6	1028
99	5533	44.2	1028
99	5533	44.2	1028
99	5533	44.2	1028
99	5533	44.2	1028
99	5533	44.2	1028
99	6021	48.2	1028
99	6021	48.2	1028
99	6438	51.4	1028
99	6438	51.4	1028
99	6438	51.4	1028
99	6438	51.4	1028
99	6956	55.4	1028
99	6956	55.4	1028
99	6956	55.4	1028
99	6956	55.4	1028
99	7384	58.6	1028
99	7384	58.6	1028
99	7837	62.2	1028
99	7837	62.2	1028
99	7837	62.2	1028
99	7837	62.2	1028
99	7837	62.2	1028
99	8315	65.8	1028
99	8315	65.8	1028
99	8315	65.8	1028
99	8315	65.8	1028
99	8315	65.8	1028
99	8873	70.2	1028
99	8873	70.2	1028
99	9531	75.4	1028
99	9531	75.4	1028
99	9531	75.4	1028
99	9531	75.4	1028
99	9531	75.4	1028
99	9957	78.6	1028
99	9957	78.6	1028
99	9957	78.6	1028
99	9957	78.6	1028
99	9957	78.6	1028
99	9957	78.6	1028
99	10535	83.4	1028
99	10535	83.4	1028
99	10535	83.4	1028
99	10535	83.4	1028
99	10938	86.6	1028
99	10938	86.6	1028
99	10938	86.6	1028
99	10938	86.6	1028
99	10938	86.6	1028
99	11361	90.2	1028
99	11361	90.2	1028
99	11361	90.2	1028
99	11361	90.2	1028
99	11361	90.2	1028
99	11769	93.4	1028
99	11769	93.4	1028
99	11769	93.4	1028
99	12229	97	1028
99	12229	97	1028
99	12229	97	1028
99	12229	97	1028
99	12229	97	1028
99	12645	100.6	1028
100	1972	15.6	1028
100	2129	16.8	1028
100	3067	24.4	1028
100	4439	35.2	1028
100	6065	48.4	1028
100	6480	51.6	1028
100	6628	52.8	1028
100	6799	54	1028
100	6946	55.2	1028
100	7166	56.8	1028
100	8102	64	1028
100	9381	74	1028
100	9622	76	1028
100	9679	76.4	1028
100	9740	76.8	1028
100	9894	78	1028
100	10780	85.2	1028
100	10928	86.4	1028
100	11154	88.4	1028
100	11607	92	1028
100	11876	94	1028
100	12160	96.4	1028
100	12269	97.2	1028
101	1972	15.6	1028
101	2129	16.8	1028
101	3067	24.4	1028
101	4439	35.2	1028
101	6065	48.4	1028
101	6480	51.6	1028
101	6628	52.8	1028
101	6799	54	1028
101	6946	55.2	1028
101	7166	56.8	1028
101	8102	64	1028
101	9381	74	1028
101	9622	76	1028
101	9679	76.4	1028
101	9740	76.8	1028
101	9894	78	1028
101	10780	85.2	1028
101	10928	86.4	1028
101	11154	88.4	1028
101	11607	92	1028
101	11876	94	1028
101	12160	96.4	1028
101	12269	97.2	1028
102	1983	15.6	1008
102	2138	16.8	1008
102	3076	24.4	1008
102	4448	35.2	1008
102	6075	48.4	1008
102	6488	51.6	1008
102	6639	52.8	1008
102	6809	54	1008
102	6953	55.2	1008
102	7171	56.8	1008
102	8111	64	1008
102	9390	74	1008
102	9632	76	1008
102	9689	76.4	1008
102	9748	76.8	1008
102	9903	78	1008
102	10788	85.2	1008
102	10935	86.4	1008
102	11159	88.4	1008
102	11617	92	1008
102	11886	94	1008
102	12170	96.4	1008
102	12280	97.2	1008
103	1983	15.6	1
103	2138	16.8	2
103	3076	24.4	3
103	4448	35.2	4
103	6075	48.4	5
103	6488	51.6	6
103	6639	52.8	7
103	6809	54	8
103	6953	55.2	9
103	7171	56.8	10
103	8111	64	11
103	9390	74	12
103	9632	76	13
103	9689	76.4	14
103	9748	76.8	15
103	9903	78	16
103	10788	85.2	17
103	10935	86.4	18
103	11159	88.4	19
103	11617	92	20
103	11886	94	21
103	12170	96.4	22
103	12280	97.2	23
104	1988	15.6	1000
104	2142	16.8	1000
104	3078	24.4	1000
104	4452	35.2	1000
104	6079	48.4	1000
104	6491	51.6	1000
104	6643	52.8	1000
104	6813	54	1000
104	6955	55.2	1000
104	7173	56.8	1000
104	8114	64	1000
104	9394	74	1000
104	9636	76	1000
104	9693	76.4	1000
104	9752	76.8	1000
104	9907	78	1000
104	10792	85.2	1000
104	10937	86.4	1000
104	11161	88.4	1000
104	11621	92	1000
104	11890	94	1000
104	12174	96.4	1000
104	12285	97.2	1000
105	1988	0.1	0
105	1988	0.2	0
105	1988	0.3	0
105	1988	0.4	0
105	1988	0.5	0
105	1988	0.6	0
105	1988	0.7	0
105	1988	0.8	0
105	1988	0.9	0
105	1988	1	0
105	1988	1.1	0
105	1988	1.2	0
105	1988	1.3	0
105	1988	1.4	0
105	1988	1.5	0
105	1988	1.6	0
105	1988	1.7	0
105	1988	1.8	0
105	1988	1.9	0
105	1988	2	0
105	1988	2.1	0
105	1988	2.2	0
105	1988	2.3	0
105	1988	2.4	0
105	1988	2.5	0
105	1988	2.6	0
105	1988	2.7	0
105	1988	2.8	0
105	1988	2.9	0
105	1988	3	0
105	1988	3.1	0
105	1988	3.2	0
105	1988	3.3	0
105	1988	3.4	0
105	1988	3.5	0
105	1988	3.6	0
105	1988	3.7	0
105	1988	3.8	0
105	1988	3.9	0
105	1988	4	0
105	1988	4.1	0
105	1988	4.2	0
105	1988	4.3	0
105	1988	4.4	0
105	1988	4.5	0
105	1988	4.6	0
105	1988	4.7	0
105	1988	4.8	0
105	1988	4.9	0
105	1988	5	0
105	1988	5.1	0
105	1988	5.2	0
105	1988	5.3	0
105	1988	5.4	0
105	1988	5.5	0
105	1988	5.6	0
105	1988	5.7	0
105	1988	5.8	0
105	1988	5.9	0
105	1988	6	0
105	1988	6.1	0
105	1988	6.2	0
105	1988	6.3	0
105	1988	6.4	0
105	1988	6.5	0
105	1988	6.6	0
105	1988	6.7	0
105	1988	6.8	0
105	1988	6.9	0
105	1988	7	0
105	1988	7.1	0
105	1988	7.2	0
105	1988	7.3	0
105	1988	7.4	0
105	1988	7.5	0
105	1988	7.6	0
105	1988	7.7	0
105	1988	7.8	0
105	1988	7.9	0
105	1988	8	0
105	1988	8.1	0
105	1988	8.2	0
105	1988	8.3	0
105	1988	8.4	0
105	1988	8.5	0
105	1988	8.6	0
105	1988	8.7	0
105	1988	8.8	0
105	1988	8.9	0
105	1988	9	0
105	1988	9.1	0
105	1988	9.2	0
105	1988	9.3	0
105	1988	9.4	0
105	1988	9.5	0
105	1988	9.6	0
105	1988	9.7	0
105	1988	9.8	0
105	1988	9.9	0
105	1988	10	0
105	1988	10.1	0
105	1988	10.2	0
105	1988	10.3	0
105	1988	10.4	0
105	1988	10.5	0
105	1988	10.6	0
105	1988	10.7	0
105	1988	10.8	0
105	1988	10.9	0
105	1988	11	0
105	1988	11.1	0
105	1988	11.2	0
105	1988	11.3	0
105	1988	11.4	0
105	1988	11.5	0
105	1988	11.6	0
105	1988	11.7	0
105	1988	11.8	0
105	1988	11.9	0
105	1988	12	0
105	1988	12.1	0
105	1988	12.2	0
105	1988	12.3	0
105	1988	12.4	0
105	1988	12.5	0
105	1988	12.6	0
105	1988	12.7	0
105	1988	12.8	0
105	1988	12.9	0
105	1988	13	0
105	1988	13.1	0
105	1988	13.2	0
105	1988	13.3	0
105	1988	13.4	0
105	1988	13.5	0
105	1988	13.6	0
105	1988	13.7	0
105	1988	13.8	0
105	1988	13.9	0
105	1988	14	0
105	1988	14.1	0
105	1988	14.2	0
105	1988	14.3	0
105	1988	14.4	0
105	1988	14.5	0
105	1988	14.6	0
105	1988	14.7	0
105	1988	14.8	0
105	1988	14.9	0
105	1988	15	0
105	1988	15.1	0
105	1988	15.2	0
105	1988	15.3	0
105	1988	15.4	0
105	1988	15.5	0
105	1988	15.6	0
105	2142	15.7	80000
105	2142	15.8	0
105	2142	15.9	0
105	2142	16	0
105	2142	16.1	0
105	2142	16.2	0
105	2142	16.3	0
105	2142	16.4	0
105	2142	16.5	0
105	2142	16.6	0
105	2142	16.7	0
105	2142	16.8	0
105	3078	16.9	80000
105	3078	17	0
105	3078	17.1	0
105	3078	17.2	0
105	3078	17.3	0
105	3078	17.4	0
105	3078	17.5	0
105	3078	17.6	0
105	3078	17.7	0
105	3078	17.8	0
105	3078	17.9	0
105	3078	18	0
105	3078	18.1	0
105	3078	18.2	0
105	3078	18.3	0
105	3078	18.4	0
105	3078	18.5	0
105	3078	18.6	0
105	3078	18.7	0
105	3078	18.8	0
105	3078	18.9	0
105	3078	19	0
105	3078	19.1	0
105	3078	19.2	0
105	3078	19.3	0
105	3078	19.4	0
105	3078	19.5	0
105	3078	19.6	0
105	3078	19.7	0
105	3078	19.8	0
105	3078	19.9	0
105	3078	20	0
105	3078	20.1	0
105	3078	20.2	0
105	3078	20.3	0
105	3078	20.4	0
105	3078	20.5	0
105	3078	20.6	0
105	3078	20.7	0
105	3078	20.8	0
105	3078	20.9	0
105	3078	21	0
105	3078	21.1	0
105	3078	21.2	0
105	3078	21.3	0
105	3078	21.4	0
105	3078	21.5	0
105	3078	21.6	0
105	3078	21.7	0
105	3078	21.8	0
105	3078	21.9	0
105	3078	22	0
105	3078	22.1	0
105	3078	22.2	0
105	3078	22.3	0
105	3078	22.4	0
105	3078	22.5	0
105	3078	22.6	0
105	3078	22.7	0
105	3078	22.8	0
105	3078	22.9	0
105	3078	23	0
105	3078	23.1	0
105	3078	23.2	0
105	3078	23.3	0
105	3078	23.4	0
105	3078	23.5	0
105	3078	23.6	0
105	3078	23.7	0
105	3078	23.8	0
105	3078	23.9	0
105	3078	24	0
105	3078	24.1	0
105	3078	24.2	0
105	3078	24.3	0
105	3078	24.4	0
105	4452	24.5	80000
105	4452	24.6	0
105	4452	24.7	0
105	4452	24.8	0
105	4452	24.9	0
105	4452	25	0
105	4452	25.1	0
105	4452	25.2	0
105	4452	25.3	0
105	4452	25.4	0
105	4452	25.5	0
105	4452	25.6	0
105	4452	25.7	0
105	4452	25.8	0
105	4452	25.9	0
105	4452	26	0
105	4452	26.1	0
105	4452	26.2	0
105	4452	26.3	0
105	4452	26.4	0
105	4452	26.5	0
105	4452	26.6	0
105	4452	26.7	0
105	4452	26.8	0
105	4452	26.9	0
105	4452	27	0
105	4452	27.1	0
105	4452	27.2	0
105	4452	27.3	0
105	4452	27.4	0
105	4452	27.5	0
105	4452	27.6	0
105	4452	27.7	0
105	4452	27.8	0
105	4452	27.9	0
105	4452	28	0
105	4452	28.1	0
105	4452	28.2	0
105	4452	28.3	0
105	4452	28.4	0
105	4452	28.5	0
105	4452	28.6	0
105	4452	28.7	0
105	4452	28.8	0
105	4452	28.9	0
105	4452	29	0
105	4452	29.1	0
105	4452	29.2	0
105	4452	29.3	0
105	4452	29.4	0
105	4452	29.5	0
105	4452	29.6	0
105	4452	29.7	0
105	4452	29.8	0
105	4452	29.9	0
105	4452	30	0
105	4452	30.1	0
105	4452	30.2	0
105	4452	30.3	0
105	4452	30.4	0
105	4452	30.5	0
105	4452	30.6	0
105	4452	30.7	0
105	4452	30.8	0
105	4452	30.9	0
105	4452	31	0
105	4452	31.1	0
105	4452	31.2	0
105	4452	31.3	0
105	4452	31.4	0
105	4452	31.5	0
105	4452	31.6	0
105	4452	31.7	0
105	4452	31.8	0
105	4452	31.9	0
105	4452	32	0
105	4452	32.1	0
105	4452	32.2	0
105	4452	32.3	0
105	4452	32.4	0
105	4452	32.5	0
105	4452	32.6	0
105	4452	32.7	0
105	4452	32.8	0
105	4452	32.9	0
105	4452	33	0
105	4452	33.1	0
105	4452	33.2	0
105	4452	33.3	0
105	4452	33.4	0
105	4452	33.5	0
105	4452	33.6	0
105	4452	33.7	0
105	4452	33.8	0
105	4452	33.9	0
105	4452	34	0
105	4452	34.1	0
105	4452	34.2	0
105	4452	34.3	0
105	4452	34.4	0
105	4452	34.5	0
105	4452	34.6	0
105	4452	34.7	0
105	4452	34.8	0
105	4452	34.9	0
105	4452	35	0
105	4452	35.1	0
105	4452	35.2	0
105	6079	35.3	80000
105	6079	35.4	0
105	6079	35.5	0
105	6079	35.6	0
105	6079	35.7	0
105	6079	35.8	0
105	6079	35.9	0
105	6079	36	0
105	6079	36.1	0
105	6079	36.2	0
105	6079	36.3	0
105	6079	36.4	0
105	6079	36.5	0
105	6079	36.6	0
105	6079	36.7	0
105	6079	36.8	0
105	6079	36.9	0
105	6079	37	0
105	6079	37.1	0
105	6079	37.2	0
105	6079	37.3	0
105	6079	37.4	0
105	6079	37.5	0
105	6079	37.6	0
105	6079	37.7	0
105	6079	37.8	0
105	6079	37.9	0
105	6079	38	0
105	6079	38.1	0
105	6079	38.2	0
105	6079	38.3	0
105	6079	38.4	0
105	6079	38.5	0
105	6079	38.6	0
105	6079	38.7	0
105	6079	38.8	0
105	6079	38.9	0
105	6079	39	0
105	6079	39.1	0
105	6079	39.2	0
105	6079	39.3	0
105	6079	39.4	0
105	6079	39.5	0
105	6079	39.6	0
105	6079	39.7	0
105	6079	39.8	0
105	6079	39.9	0
105	6079	40	0
105	6079	40.1	0
105	6079	40.2	0
105	6079	40.3	0
105	6079	40.4	0
105	6079	40.5	0
105	6079	40.6	0
105	6079	40.7	0
105	6079	40.8	0
105	6079	40.9	0
105	6079	41	0
105	6079	41.1	0
105	6079	41.2	0
105	6079	41.3	0
105	6079	41.4	0
105	6079	41.5	0
105	6079	41.6	0
105	6079	41.7	0
105	6079	41.8	0
105	6079	41.9	0
105	6079	42	0
105	6079	42.1	0
105	6079	42.2	0
105	6079	42.3	0
105	6079	42.4	0
105	6079	42.5	0
105	6079	42.6	0
105	6079	42.7	0
105	6079	42.8	0
105	6079	42.9	0
105	6079	43	0
105	6079	43.1	0
105	6079	43.2	0
105	6079	43.3	0
105	6079	43.4	0
105	6079	43.5	0
105	6079	43.6	0
105	6079	43.7	0
105	6079	43.8	0
105	6079	43.9	0
105	6079	44	0
105	6079	44.1	0
105	6079	44.2	0
105	6079	44.3	0
105	6079	44.4	0
105	6079	44.5	0
105	6079	44.6	0
105	6079	44.7	0
105	6079	44.8	0
105	6079	44.9	0
105	6079	45	0
105	6079	45.1	0
105	6079	45.2	0
105	6079	45.3	0
105	6079	45.4	0
105	6079	45.5	0
105	6079	45.6	0
105	6079	45.7	0
105	6079	45.8	0
105	6079	45.9	0
105	6079	46	0
105	6079	46.1	0
105	6079	46.2	0
105	6079	46.3	0
105	6079	46.4	0
105	6079	46.5	0
105	6079	46.6	0
105	6079	46.7	0
105	6079	46.8	0
105	6079	46.9	0
105	6079	47	0
105	6079	47.1	0
105	6079	47.2	0
105	6079	47.3	0
105	6079	47.4	0
105	6079	47.5	0
105	6079	47.6	0
105	6079	47.7	0
105	6079	47.8	0
105	6079	47.9	0
105	6079	48	0
105	6079	48.1	0
105	6079	48.2	0
105	6079	48.3	0
105	6079	48.4	0
105	6491	48.5	80000
105	6491	48.6	0
105	6491	48.7	0
105	6491	48.8	0
105	6491	48.9	0
105	6491	49	0
105	6491	49.1	0
105	6491	49.2	0
105	6491	49.3	0
105	6491	49.4	0
105	6491	49.5	0
105	6491	49.6	0
105	6491	49.7	0
105	6491	49.8	0
105	6491	49.9	0
105	6491	50	0
105	6491	50.1	0
105	6491	50.2	0
105	6491	50.3	0
105	6491	50.4	0
105	6491	50.5	0
105	6491	50.6	0
105	6491	50.7	0
105	6491	50.8	0
105	6491	50.9	0
105	6491	51	0
105	6491	51.1	0
105	6491	51.2	0
105	6491	51.3	0
105	6491	51.4	0
105	6491	51.5	0
105	6491	51.6	0
105	6643	51.7	80000
105	6643	51.8	0
105	6643	51.9	0
105	6643	52	0
105	6643	52.1	0
105	6643	52.2	0
105	6643	52.3	0
105	6643	52.4	0
105	6643	52.5	0
105	6643	52.6	0
105	6643	52.7	0
105	6643	52.8	0
105	6813	52.9	80000
105	6813	53	0
105	6813	53.1	0
105	6813	53.2	0
105	6813	53.3	0
105	6813	53.4	0
105	6813	53.5	0
105	6813	53.6	0
105	6813	53.7	0
105	6813	53.8	0
105	6813	53.9	0
105	6813	54	0
105	6955	54.1	80000
105	6955	54.2	0
105	6955	54.3	0
105	6955	54.4	0
105	6955	54.5	0
105	6955	54.6	0
105	6955	54.7	0
105	6955	54.8	0
105	6955	54.9	0
105	6955	55	0
105	6955	55.1	0
105	6955	55.2	0
105	7173	55.3	80000
105	7173	55.4	0
105	7173	55.5	0
105	7173	55.6	0
105	7173	55.7	0
105	7173	55.8	0
105	7173	55.9	0
105	7173	56	0
105	7173	56.1	0
105	7173	56.2	0
105	7173	56.3	0
105	7173	56.4	0
105	7173	56.5	0
105	7173	56.6	0
105	7173	56.7	0
105	7173	56.8	0
105	8114	56.9	80000
105	8114	57	0
105	8114	57.1	0
105	8114	57.2	0
105	8114	57.3	0
105	8114	57.4	0
105	8114	57.5	0
105	8114	57.6	0
105	8114	57.7	0
105	8114	57.8	0
105	8114	57.9	0
105	8114	58	0
105	8114	58.1	0
105	8114	58.2	0
105	8114	58.3	0
105	8114	58.4	0
105	8114	58.5	0
105	8114	58.6	0
105	8114	58.7	0
105	8114	58.8	0
105	8114	58.9	0
105	8114	59	0
105	8114	59.1	0
105	8114	59.2	0
105	8114	59.3	0
105	8114	59.4	0
105	8114	59.5	0
105	8114	59.6	0
105	8114	59.7	0
105	8114	59.8	0
105	8114	59.9	0
105	8114	60	0
105	8114	60.1	0
105	8114	60.2	0
105	8114	60.3	0
105	8114	60.4	0
105	8114	60.5	0
105	8114	60.6	0
105	8114	60.7	0
105	8114	60.8	0
105	8114	60.9	0
105	8114	61	0
105	8114	61.1	0
105	8114	61.2	0
105	8114	61.3	0
105	8114	61.4	0
105	8114	61.5	0
105	8114	61.6	0
105	8114	61.7	0
105	8114	61.8	0
105	8114	61.9	0
105	8114	62	0
105	8114	62.1	0
105	8114	62.2	0
105	8114	62.3	0
105	8114	62.4	0
105	8114	62.5	0
105	8114	62.6	0
105	8114	62.7	0
105	8114	62.8	0
105	8114	62.9	0
105	8114	63	0
105	8114	63.1	0
105	8114	63.2	0
105	8114	63.3	0
105	8114	63.4	0
105	8114	63.5	0
105	8114	63.6	0
105	8114	63.7	0
105	8114	63.8	0
105	8114	63.9	0
105	8114	64	0
105	9394	64.1	80000
105	9394	64.2	0
105	9394	64.3	0
105	9394	64.4	0
105	9394	64.5	0
105	9394	64.6	0
105	9394	64.7	0
105	9394	64.8	0
105	9394	64.9	0
105	9394	65	0
105	9394	65.1	0
105	9394	65.2	0
105	9394	65.3	0
105	9394	65.4	0
105	9394	65.5	0
105	9394	65.6	0
105	9394	65.7	0
105	9394	65.8	0
105	9394	65.9	0
105	9394	66	0
105	9394	66.1	0
105	9394	66.2	0
105	9394	66.3	0
105	9394	66.4	0
105	9394	66.5	0
105	9394	66.6	0
105	9394	66.7	0
105	9394	66.8	0
105	9394	66.9	0
105	9394	67	0
105	9394	67.1	0
105	9394	67.2	0
105	9394	67.3	0
105	9394	67.4	0
105	9394	67.5	0
105	9394	67.6	0
105	9394	67.7	0
105	9394	67.8	0
105	9394	67.9	0
105	9394	68	0
105	9394	68.1	0
105	9394	68.2	0
105	9394	68.3	0
105	9394	68.4	0
105	9394	68.5	0
105	9394	68.6	0
105	9394	68.7	0
105	9394	68.8	0
105	9394	68.9	0
105	9394	69	0
105	9394	69.1	0
105	9394	69.2	0
105	9394	69.3	0
105	9394	69.4	0
105	9394	69.5	0
105	9394	69.6	0
105	9394	69.7	0
105	9394	69.8	0
105	9394	69.9	0
105	9394	70	0
105	9394	70.1	0
105	9394	70.2	0
105	9394	70.3	0
105	9394	70.4	0
105	9394	70.5	0
105	9394	70.6	0
105	9394	70.7	0
105	9394	70.8	0
105	9394	70.9	0
105	9394	71	0
105	9394	71.1	0
105	9394	71.2	0
105	9394	71.3	0
105	9394	71.4	0
105	9394	71.5	0
105	9394	71.6	0
105	9394	71.7	0
105	9394	71.8	0
105	9394	71.9	0
105	9394	72	0
105	9394	72.1	0
105	9394	72.2	0
105	9394	72.3	0
105	9394	72.4	0
105	9394	72.5	0
105	9394	72.6	0
105	9394	72.7	0
105	9394	72.8	0
105	9394	72.9	0
105	9394	73	0
105	9394	73.1	0
105	9394	73.2	0
105	9394	73.3	0
105	9394	73.4	0
105	9394	73.5	0
105	9394	73.6	0
105	9394	73.7	0
105	9394	73.8	0
105	9394	73.9	0
105	9394	74	0
105	9636	74.1	80000
105	9636	74.2	0
105	9636	74.3	0
105	9636	74.4	0
105	9636	74.5	0
105	9636	74.6	0
105	9636	74.7	0
105	9636	74.8	0
105	9636	74.9	0
105	9636	75	0
105	9636	75.1	0
105	9636	75.2	0
105	9636	75.3	0
105	9636	75.4	0
105	9636	75.5	0
105	9636	75.6	0
105	9636	75.7	0
105	9636	75.8	0
105	9636	75.9	0
105	9636	76	0
105	9693	76.1	80000
105	9693	76.2	0
105	9693	76.3	0
105	9693	76.4	0
105	9752	76.5	80000
105	9752	76.6	0
105	9752	76.7	0
105	9752	76.8	0
105	9907	76.9	80000
105	9907	77	0
105	9907	77.1	0
105	9907	77.2	0
105	9907	77.3	0
105	9907	77.4	0
105	9907	77.5	0
105	9907	77.6	0
105	9907	77.7	0
105	9907	77.8	0
105	9907	77.9	0
105	9907	78	0
105	10792	78.1	80000
105	10792	78.2	0
105	10792	78.3	0
105	10792	78.4	0
105	10792	78.5	0
105	10792	78.6	0
105	10792	78.7	0
105	10792	78.8	0
105	10792	78.9	0
105	10792	79	0
105	10792	79.1	0
105	10792	79.2	0
105	10792	79.3	0
105	10792	79.4	0
105	10792	79.5	0
105	10792	79.6	0
105	10792	79.7	0
105	10792	79.8	0
105	10792	79.9	0
105	10792	80	0
105	10792	80.1	0
105	10792	80.2	0
105	10792	80.3	0
105	10792	80.4	0
105	10792	80.5	0
105	10792	80.6	0
105	10792	80.7	0
105	10792	80.8	0
105	10792	80.9	0
105	10792	81	0
105	10792	81.1	0
105	10792	81.2	0
105	10792	81.3	0
105	10792	81.4	0
105	10792	81.5	0
105	10792	81.6	0
105	10792	81.7	0
105	10792	81.8	0
105	10792	81.9	0
105	10792	82	0
105	10792	82.1	0
105	10792	82.2	0
105	10792	82.3	0
105	10792	82.4	0
105	10792	82.5	0
105	10792	82.6	0
105	10792	82.7	0
105	10792	82.8	0
105	10792	82.9	0
105	10792	83	0
105	10792	83.1	0
105	10792	83.2	0
105	10792	83.3	0
105	10792	83.4	0
105	10792	83.5	0
105	10792	83.6	0
105	10792	83.7	0
105	10792	83.8	0
105	10792	83.9	0
105	10792	84	0
105	10792	84.1	0
105	10792	84.2	0
105	10792	84.3	0
105	10792	84.4	0
105	10792	84.5	0
105	10792	84.6	0
105	10792	84.7	0
105	10792	84.8	0
105	10792	84.9	0
105	10792	85	0
105	10792	85.1	0
105	10792	85.2	0
105	10937	85.3	80000
105	10937	85.4	0
105	10937	85.5	0
105	10937	85.6	0
105	10937	85.7	0
105	10937	85.8	0
105	10937	85.9	0
105	10937	86	0
105	10937	86.1	0
105	10937	86.2	0
105	10937	86.3	0
105	10937	86.4	0
105	11161	86.5	80000
105	11161	86.6	0
105	11161	86.7	0
105	11161	86.8	0
105	11161	86.9	0
105	11161	87	0
105	11161	87.1	0
105	11161	87.2	0
105	11161	87.3	0
105	11161	87.4	0
105	11161	87.5	0
105	11161	87.6	0
105	11161	87.7	0
105	11161	87.8	0
105	11161	87.9	0
105	11161	88	0
105	11161	88.1	0
105	11161	88.2	0
105	11161	88.3	0
105	11161	88.4	0
105	11621	88.5	80000
105	11621	88.6	0
105	11621	88.7	0
105	11621	88.8	0
105	11621	88.9	0
105	11621	89	0
105	11621	89.1	0
105	11621	89.2	0
105	11621	89.3	0
105	11621	89.4	0
105	11621	89.5	0
105	11621	89.6	0
105	11621	89.7	0
105	11621	89.8	0
105	11621	89.9	0
105	11621	90	0
105	11621	90.1	0
105	11621	90.2	0
105	11621	90.3	0
105	11621	90.4	0
105	11621	90.5	0
105	11621	90.6	0
105	11621	90.7	0
105	11621	90.8	0
105	11621	90.9	0
105	11621	91	0
105	11621	91.1	0
105	11621	91.2	0
105	11621	91.3	0
105	11621	91.4	0
105	11621	91.5	0
105	11621	91.6	0
105	11621	91.7	0
105	11621	91.8	0
105	11621	91.9	0
105	11621	92	0
105	11890	92.1	80000
105	11890	92.2	0
105	11890	92.3	0
105	11890	92.4	0
105	11890	92.5	0
105	11890	92.6	0
105	11890	92.7	0
105	11890	92.8	0
105	11890	92.9	0
105	11890	93	0
105	11890	93.1	0
105	11890	93.2	0
105	11890	93.3	0
105	11890	93.4	0
105	11890	93.5	0
105	11890	93.6	0
105	11890	93.7	0
105	11890	93.8	0
105	11890	93.9	0
105	11890	94	0
105	12174	94.1	80000
105	12174	94.2	0
105	12174	94.3	0
105	12174	94.4	0
105	12174	94.5	0
105	12174	94.6	0
105	12174	94.7	0
105	12174	94.8	0
105	12174	94.9	0
105	12174	95	0
105	12174	95.1	0
105	12174	95.2	0
105	12174	95.3	0
105	12174	95.4	0
105	12174	95.5	0
105	12174	95.6	0
105	12174	95.7	0
105	12174	95.8	0
105	12174	95.9	0
105	12174	96	0
105	12174	96.1	0
105	12174	96.2	0
105	12174	96.3	0
105	12174	96.4	0
105	12285	96.5	80000
105	12285	96.6	0
105	12285	96.7	0
105	12285	96.8	0
105	12285	96.9	0
105	12285	97	0
105	12285	97.1	0
105	12285	97.2	0
106	1988	15.6	0
106	2142	16.8	0
106	3078	24.4	0
106	4452	35.2	0
106	6079	48.4	0
106	6491	51.6	0
106	6643	52.8	0
106	6813	54	0
106	6955	55.2	0
106	7173	56.8	0
106	8114	64	0
106	9394	74	0
106	9636	76	0
106	9693	76.4	0
106	9752	76.8	0
106	9907	78	0
106	10792	85.2	0
106	10937	86.4	0
106	11161	88.4	0
106	11621	92	0
106	11890	94	0
106	12174	96.4	0
106	12285	97.2	0

